pglib_opf_case2316_sdet/pglib_opf_case2316_sdet_6regions.m
% -------------------------------------------------------------------------
% Partitioned MATPOWER Case File
% Copyright (c) 2025 Milad Hasanzadeh
% Generated on: 2026-06-09
% This file contains partitioned data for 6 regions


% -------------------- mpc_regionR1 --------------------

mpc_regionR1.version = '2';
mpc_regionR1.baseMVA = 100.0000;
mpc_regionR1.bus = [
%	bus_i       type        Pd          Qd          Gs          Bs          area        Vm          Va          baseKV      zone        Vmax        Vmin        
	 1	 1	 81.5	 85.9	 0	 0	 3	 1	 0	 345	 3	 1.1	 0.9;
	 2	 1	 0	 0	 0	 0	 3	 1	 0	 500	 3	 1.1	 0.9;
	 3	 2	 0	 0	 0	-11.35	 3	 1	 0	 500	 3	 1.1	 0.9;
	 4	 1	 0	 0	 0	 0	 3	 1	 0	 500	 3	 1.1	 0.9;
	 5	 1	 0	 0	 0	 0	 3	 1	 0	 500	 3	 1.1	 0.9;
	 6	 1	 0	 0	 0	 75.29	 3	 1	 0	 500	 3	 1.1	 0.9;
	 7	 2	 0	 0	 0	-27.07	 3	 1	 0	 345	 3	 1.1	 0.9;
	 8	 2	 0	 0	 0	-322.11	 3	 1	 0	 500	 3	 1.1	 0.9;
	 9	 1	 0	 0	 0	 0	 3	 1	 0	 500	 3	 1.1	 0.9;
	 10	 1	 0	 0	 0	 0	 3	 1	 0	 500	 3	 1.1	 0.9;
	 11	 2	 0	 0	 0	-124.24	 3	 1	 0	 500	 3	 1.1	 0.9;
	 12	 1	 34.71	 60.16	 0	 0	 3	 1	 0	 500	 3	 1.1	 0.9;
	 13	 1	 0	 0	 0	 70	 3	 1	 0	 500	 3	 1.1	 0.9;
	 14	 1	 0	 0	 0	 0	 3	 1	 0	 500	 3	 1.1	 0.9;
	 15	 2	 11	 40	 0	 0	 3	 1	 0	 500	 3	 1.1	 0.9;
	 16	 2	 5	 10	 0	 0	 3	 1	 0	 500	 3	 1.1	 0.9;
	 17	 1	 6.93	 3.11	 0	 0	 3	 1	 0	 138	 3	 1.1	 0.9;
	 18	 2	 14.65	 1	 0	 0	 3	 1	 0	 138	 3	 1.1	 0.9;
	 19	 2	 8.14	 1.32	 0	 0	 3	 1	 0	 138	 3	 1.1	 0.9;
	 20	 1	 14.17	 4.22	 0	 0	 3	 1	 0	 138	 3	 1.1	 0.9;
	 21	 2	 4.22	 1	 0	 0	 3	 1	 0	 138	 3	 1.1	 0.9;
	 22	 1	 131.91	 57.06	 0	 0	 3	 1	 0	 138	 3	 1.1	 0.9;
	 23	 1	 0	 0	 0	 48.6	 3	 1	 0	 32	 3	 1.1	 0.9;
	 24	 1	 0	 0	 0	 0	 3	 1	 0	 138	 3	 1.1	 0.9;
	 25	 1	 5.22	 2.11	 0	 0	 3	 1	 0	 138	 3	 1.1	 0.9;
	 26	 1	 2.61	 1	 0	 0	 3	 1	 0	 138	 3	 1.1	 0.9;
	 27	 2	 0.01	 0.01	 0	 0	 3	 1	 0	 138	 3	 1.1	 0.9;
	 28	 2	 0.01	 0.01	 0	 0	 3	 1	 0	 138	 3	 1.1	 0.9;
	 29	 1	 15.67	 5.22	 0	 0	 3	 1	 0	 138	 3	 1.1	 0.9;
	 30	 1	 16.78	 4.72	 0	 0	 3	 1	 0	 138	 3	 1.1	 0.9;
	 31	 1	 4.22	 0.5	 0	 0	 3	 1	 0	 138	 3	 1.1	 0.9;
	 32	 1	 10.85	 1	 0	 0	 3	 1	 0	 138	 3	 1.1	 0.9;
	 33	 2	 14.67	 3.11	 0	 0	 3	 1	 0	 138	 3	 1.1	 0.9;
	 34	 1	 7.54	 1	 0	 0	 3	 1	 0	 138	 3	 1.1	 0.9;
	 35	 2	 2.11	 0.5	 0	 0	 3	 1	 0	 138	 3	 1.1	 0.9;
	 36	 1	 5.73	 1	 0	 0	 3	 1	 0	 138	 3	 1.1	 0.9;
	 37	 1	 0	 0	 0	 60	 3	 1	 0	 16	 3	 1.1	 0.9;
	 38	 2	 9.45	 2.61	 0	 0	 3	 1	 0	 138	 3	 1.1	 0.9;
	 39	 1	 4.22	 1	 0	 0	 3	 1	 0	 138	 3	 1.1	 0.9;
	 40	 1	 23.11	 8.34	 0	 0	 3	 1	 0	 138	 3	 1.1	 0.9;
	 41	 1	 15.67	 2.61	 0	 0	 3	 1	 0	 138	 3	 1.1	 0.9;
	 42	 1	 19.89	 6.83	 0	 0	 3	 1	 0	 138	 3	 1.1	 0.9;
	 43	 1	 8.34	 2.71	 0	 0	 3	 1	 0	 138	 3	 1.1	 0.9;
	 44	 2	 16.78	 6.33	 0	 0	 3	 1	 0	 138	 3	 1.1	 0.9;
	 45	 2	 14.67	 3.11	 0	 0	 3	 1	 0	 138	 3	 1.1	 0.9;
	 46	 1	 5.8	-0.22	 0	 0	 3	 1	 0	 138	 3	 1.1	 0.9;
	 47	 1	 7.33	 2.11	 0	 0	 3	 1	 0	 138	 3	 1.1	 0.9;
	 48	 1	 5.22	 0.5	 0	 0	 3	 1	 0	 138	 3	 1.1	 0.9;
	 49	 1	 0	 0	 0	-16.07	 3	 1	 0	 138	 3	 1.1	 0.9;
	 50	 1	 0	 0	 0	-2.01	 3	 1	 0	 138	 3	 1.1	 0.9;
	 51	 2	 9.45	 1	 0	 0	 3	 1	 0	 138	 3	 1.1	 0.9;
	 52	 1	 21.52	 0.64	 0	 0	 3	 1	 0	 138	 3	 1.1	 0.9;
	 53	 1	 10.45	 1	 0	 0	 3	 1	 0	 138	 3	 1.1	 0.9;
	 54	 1	 8.34	 3.11	 0	 0	 3	 1	 0	 138	 3	 1.1	 0.9;
	 55	 1	 0	 0	 0	 0	 3	 1	 0	 138	 3	 1.1	 0.9;
	 56	 1	 14.67	 3.11	 0	 0	 3	 1	 0	 138	 3	 1.1	 0.9;
	 57	 2	 30.44	 4.22	 0	 0	 3	 1	 0	 138	 3	 1.1	 0.9;
	 58	 1	 18.89	 4.72	 0	 0	 3	 1	 0	 138	 3	 1.1	 0.9;
	 59	 2	 11.55	 1	 0	 0	 3	 1	 0	 138	 3	 1.1	 0.9;
	 60	 1	 17.78	 4.22	 0	 0	 3	 1	 0	 138	 3	 1.1	 0.9;
	 61	 1	 0	 0	 0	 0	 3	 1	 0	 138	 3	 1.1	 0.9;
	 62	 1	 0.27	-1.51	 0	 0	 3	 1	 0	 138	 3	 1.1	 0.9;
	 63	 1	 3.04	-0.86	 0	 0	 3	 1	 0	 138	 3	 1.1	 0.9;
	 64	 1	 0	 0	 0	-15.19	 3	 1	 0	 138	 3	 1.1	 0.9;
	 65	 1	 0	 0	 0	-14.11	 3	 1	 0	 138	 3	 1.1	 0.9;
	 66	 1	 0	 0	 0	 0	 3	 1	 0	 500	 3	 1.1	 0.9;
	 67	 1	 0	 0	 0	 0	 8	 1	 0	 500	 8	 1.1	 0.9;
	 68	 2	 0	 0	 0	 0	 8	 1	 0	 500	 8	 1.1	 0.9;
	 69	 2	 0	 0	 0	 0	 8	 1	 0	 500	 8	 1.1	 0.9;
	 70	 1	 0	 0	 0	 0	 8	 1	 0	 500	 8	 1.1	 0.9;
	 71	 2	 0	 0	 0	 0	 8	 1	 0	 500	 8	 1.1	 0.9;
	 72	 2	 0	 0	 0	 0	 8	 1	 0	 500	 8	 1.1	 0.9;
	 73	 2	 0	 0	 0	 0	 8	 1	 0	 500	 8	 1.1	 0.9;
	 74	 2	 0	 0	 0	 0	 8	 1	 0	 500	 8	 1.1	 0.9;
	 75	 2	 0	 0	 0	 0	 8	 1	 0	 500	 8	 1.1	 0.9;
	 76	 2	 0	 0	 0	 0	 8	 1	 0	 500	 8	 1.1	 0.9;
	 77	 2	 0	 0	 0	 0	 8	 1	 0	 500	 8	 1.1	 0.9;
	 78	 2	 0	 0	 0	 0	 8	 1	 0	 500	 8	 1.1	 0.9;
	 79	 1	 250.17	-34.38	 0	 0	 8	 1	 0	 500	 8	 1.1	 0.9;
	 80	 2	 0	 0	 0	 0	 8	 1	 0	 500	 8	 1.1	 0.9;
	 81	 2	 0	 0	 0	 0	 8	 1	 0	 500	 8	 1.1	 0.9;
	 82	 2	 17.04	 0	 0	-104.05	 8	 1	 0	 500	 8	 1.1	 0.9;
	 83	 2	 0	 0	 0	 0	 8	 1	 0	 500	 8	 1.1	 0.9;
	 84	 2	 17.04	 0	 0	 0	 8	 1	 0	 500	 8	 1.1	 0.9;
	 85	 2	 0	 0	 0	 0	 8	 1	 0	 500	 8	 1.1	 0.9;
	 86	 2	 14.61	 0	 0	 2.62	 8	 1	 0	 500	 8	 1.1	 0.9;
	 87	 2	 0	 0	 0	-290.61	 8	 1	 0	 500	 8	 1.1	 0.9;
	 88	 1	 0	 0	 0	 0	 8	 1	 0	 500	 8	 1.1	 0.9;
	 89	 1	 0	 0	 0	 0	 8	 1	 0	 500	 8	 1.1	 0.9;
	 90	 1	 281.67	-25.98	 0	 4.48	 8	 1	 0	 500	 8	 1.1	 0.9;
	 91	 1	 635.4	-89.22	 0	 5.8	 8	 1	 0	 500	 8	 1.1	 0.9;
	 92	 1	 14.61	 0	 0	 0	 8	 1	 0	 500	 8	 1.1	 0.9;
	 93	 1	 286.67	-139.91	 0	 0	 8	 1	 0	 500	 8	 1.1	 0.9;
	 94	 2	 0	 0	 0	 64.76	 8	 1	 0	 500	 8	 1.1	 0.9;
	 95	 1	 1789.05	 135.84	 0	 39.39	 8	 1	 0	 500	 8	 1.1	 0.9;
	 96	 2	 0	 0	 0	 0	 8	 1	 0	 500	 8	 1.1	 0.9;
	 97	 1	 0	 0	 0	 0	 8	 1	 0	 500	 8	 1.1	 0.9;
	 98	 1	 0	 0	 0	 0	 8	 1	 0	 500	 8	 1.1	 0.9;
	 99	 1	 289.31	 23.88	 0	 7.83	 8	 1	 0	 500	 8	 1.1	 0.9;
	 100	 1	 244.02	-47.82	 0	 3.7	 8	 1	 0	 500	 8	 1.1	 0.9;
	 101	 1	 0	 0	 0	 1.65	 8	 1	 0	 138	 8	 1.1	 0.9;
	 102	 1	 455.22	 152.85	 0	 86.32	 8	 1	 0	 138	 8	 1.1	 0.9;
	 103	 1	 101.99	 36.24	 0	 5.2	 8	 1	 0	 138	 8	 1.1	 0.9;
	 104	 2	 309.47	 101.63	 0	 66.38	 8	 1	 0	 138	 8	 1.1	 0.9;
	 105	 2	 309.47	 101.65	 0	 66.22	 8	 1	 0	 138	 8	 1.1	 0.9;
	 106	 1	 168.21	 52.06	 0	 30.99	 8	 1	 0	 138	 8	 1.1	 0.9;
	 107	 1	 168.21	 52.05	 0	 30.96	 8	 1	 0	 138	 8	 1.1	 0.9;
	 108	 1	 673.97	 20.18	 0	-2.88	 8	 1	 0	 138	 8	 1.1	 0.9;
	 109	 1	 207.45	 28.79	 0	-1.56	 8	 1	 0	 138	 8	 1.1	 0.9;
	 110	 1	 285.46	 91.67	 0	 29.39	 8	 1	 0	 138	 8	 1.1	 0.9;
	 111	 1	 304.65	 97.77	 0	 35.34	 8	 1	 0	 138	 8	 1.1	 0.9;
	 112	 1	 0	 0	 0	 0	 8	 1	 0	 33	 8	 1.1	 0.9;
	 113	 1	 0	 0	 0	 0	 8	 1	 0	 33	 8	 1.1	 0.9;
	 114	 1	 0	 0	 0	 0	 8	 1	 0	 33	 8	 1.1	 0.9;
	 115	 1	 188.55	 74.46	 0	 19.61	 8	 1	 0	 138	 8	 1.1	 0.9;
	 116	 1	 97.01	 29.91	 0	 7.1	 8	 1	 0	 138	 8	 1.1	 0.9;
	 117	 1	 97.01	 29.91	 0	 7.48	 8	 1	 0	 138	 8	 1.1	 0.9;
	 118	 1	 223.03	 78.3	 0	 9.01	 8	 1	 0	 138	 8	 1.1	 0.9;
	 119	 2	 0	 0	 0	 0	 8	 1	 0	 500	 8	 1.1	 0.9;
	 120	 1	 0	 0	 0	 2.95	 8	 1	 0	 138	 8	 1.1	 0.9;
	 121	 1	 0	 0	 0	 5.3	 8	 1	 0	 66	 8	 1.1	 0.9;
	 122	 1	 147.36	 58.19	 0	 8.96	 8	 1	 0	 138	 8	 1.1	 0.9;
	 123	 2	 0	 0	 0	 0	 11	 1	 0	 500	 11	 1.1	 0.9;
	 124	 2	 0	 0	 0	 160.08	 11	 1	 0	 500	 11	 1.1	 0.9;
	 125	 1	 0	 0	 0	 0	 11	 1	 0	 500	 11	 1.1	 0.9;
	 126	 1	 33.1	 81.67	 0	 0	 11	 1	 0	 500	 11	 1.1	 0.9;
	 127	 2	 12.26	 1	 0	 0	 11	 1	 0	 138	 11	 1.1	 0.9;
	 128	 1	 2.91	 1.41	 0	 0	 11	 1	 0	 138	 11	 1.1	 0.9;
	 129	 2	 10.45	 1	 0	-47.66	 11	 1	 0	 138	 11	 1.1	 0.9;
	 130	 2	 31.44	 15.49	 0	 0	 11	 1	 0	 138	 11	 1.1	 0.9;
	 131	 1	 0	 0	 0	 0	 11	 1	 0	 138	 11	 1.1	 0.9;
	 132	 1	 0	 0	 0	 0	 11	 1	 0	 138	 11	 1.1	 0.9;
	 133	 1	 0	 0	 0	 48.6	 11	 1	 0	 32	 11	 1.1	 0.9;
	 134	 2	 19.05	 8.51	 0	 0	 11	 1	 0	 138	 11	 1.1	 0.9;
	 135	 2	 10.85	 2.93	 0	 0	 11	 1	 0	 138	 11	 1.1	 0.9;
	 136	 2	 0	 0	 0	 0	 11	 1	 0	 138	 11	 1.1	 0.9;
	 137	 1	 16.78	 3.82	 0	 0	 11	 1	 0	 138	 11	 1.1	 0.9;
	 138	 1	 1.11	 1	 0	 0	 11	 1	 0	 138	 11	 1.1	 0.9;
	 139	 1	 24.11	 5.22	 0	 0	 11	 1	 0	 138	 11	 1.1	 0.9;
	 140	 1	 13.66	 4.22	 0	 0	 11	 1	 0	 138	 11	 1.1	 0.9;
	 141	 1	 9.95	 2.11	 0	 0	 11	 1	 0	 138	 11	 1.1	 0.9;
	 142	 2	 7.33	 1.09	 0	 0	 11	 1	 0	 138	 11	 1.1	 0.9;
	 143	 1	 7.43	 1.51	 0	 0	 11	 1	 0	 138	 11	 1.1	 0.9;
	 144	 1	 2.11	 0.5	 0	 0	 11	 1	 0	 138	 11	 1.1	 0.9;
	 145	 1	 2.11	 0.5	 0	 20.12	 11	 1	 0	 138	 11	 1.1	 0.9;
	 146	 1	 9.45	 4.22	 0	 0	 11	 1	 0	 138	 11	 1.1	 0.9;
	 147	 1	 8.74	 3.11	 0	 0	 11	 1	 0	 138	 11	 1.1	 0.9;
	 148	 1	 6.33	 1.31	 0	 8.7	 11	 1	 0	 138	 11	 1.1	 0.9;
	 149	 1	 17.78	 5.72	 0	 0	 11	 1	 0	 138	 11	 1.1	 0.9;
	 150	 1	 17.78	 3.71	 0	 0	 11	 1	 0	 138	 11	 1.1	 0.9;
	 151	 1	 11.55	 1	 0	 0	 11	 1	 0	 138	 11	 1.1	 0.9;
	 152	 1	 4.72	 0.5	 0	 0	 11	 1	 0	 138	 11	 1.1	 0.9;
	 153	 1	 4.72	 1	 0	 0	 11	 1	 0	 138	 11	 1.1	 0.9;
	 154	 1	 6.23	 2.61	 0	 0	 11	 1	 0	 138	 11	 1.1	 0.9;
	 155	 1	 3.12	 1	 0	 0	 11	 1	 0	 138	 11	 1.1	 0.9;
	 156	 1	 12.56	 2.61	 0	 0	 11	 1	 0	 138	 11	 1.1	 0.9;
	 157	 2	 16.78	 6.33	 0	 0	 11	 1	 0	 138	 11	 1.1	 0.9;
	 158	 2	 24.11	 8.44	 0	 0	 11	 1	 0	 138	 11	 1.1	 0.9;
	 159	 1	 23.11	 8.34	 0	 0	 11	 1	 0	 138	 11	 1.1	 0.9;
	 160	 1	 8.94	 3.11	 0	 0	 11	 1	 0	 138	 11	 1.1	 0.9;
	 161	 2	 6.33	 3.64	 0	 0	 11	 1	 0	 138	 11	 1.1	 0.9;
	 162	 1	 16.78	 3.71	 0	 0	 11	 1	 0	 138	 11	 1.1	 0.9;
	 163	 1	 0.6	 0.2	 0	 0	 11	 1	 0	 138	 11	 1.1	 0.9;
	 164	 2	 13.06	 4.72	 0	 0	 11	 1	 0	 138	 11	 1.1	 0.9;
	 165	 1	 13.06	 4.72	 0	 0	 11	 1	 0	 138	 11	 1.1	 0.9;
	 166	 1	 0	 0	 0	 0	 11	 1	 0	 138	 11	 1.1	 0.9;
	 167	 1	 5.73	 3.11	 0	 0	 11	 1	 0	 138	 11	 1.1	 0.9;
	 168	 1	 23.11	 6.33	 0	 0	 11	 1	 0	 138	 11	 1.1	 0.9;
	 169	 1	 7.33	 1.71	 0	 0	 11	 1	 0	 138	 11	 1.1	 0.9;
	 170	 1	 0	 0	 0	 0	 11	 1	 0	 138	 11	 1.1	 0.9;
	 171	 1	 8.94	 2.11	 0	 0	 11	 1	 0	 138	 11	 1.1	 0.9;
	 172	 1	 13.06	 3.71	 0	 0	 11	 1	 0	 138	 11	 1.1	 0.9;
	 173	 1	 51.14	 9	 0	-10.14	 13	 1	 0	 138	 13	 1.1	 0.9;
	 174	 1	 3525.05	 215.69	 0	 0	 15	 1	 0	 500	 15	 1.1	 0.9;
	 175	 2	 0	 0	 0	 0	 15	 1	 0	 500	 15	 1.1	 0.9;
	 176	 2	 0	 0	 0	 0	 15	 1	 0	 500	 15	 1.1	 0.9;
	 177	 2	 0	 0	 0	 0	 15	 1	 0	 500	 15	 1.1	 0.9;
	 178	 2	 0	 0	 0	 0	 15	 1	 0	 500	 15	 1.1	 0.9;
	 179	 1	 0	 0	 0	-0.33	 15	 1	 0	 500	 15	 1.1	 0.9;
	 180	 2	 0	 0	 0	 0	 15	 1	 0	 500	 15	 1.1	 0.9;
	 181	 2	 0	 0	 0	 0	 15	 1	 0	 500	 15	 1.1	 0.9;
	 182	 2	 0	 0	 0	 0	 15	 1	 0	 500	 15	 1.1	 0.9;
	 183	 1	 0	 0	 0	-0.3	 15	 1	 0	 500	 15	 1.1	 0.9;
	 184	 2	 0	 0	 0	 0	 15	 1	 0	 500	 15	 1.1	 0.9;
	 185	 2	 0	 0	 0	 0	 15	 1	 0	 500	 15	 1.1	 0.9;
	 186	 2	 0	 0	 0	 0	 15	 1	 0	 500	 15	 1.1	 0.9;
	 187	 1	 0	 0	 0	 0	 15	 1	 0	 500	 15	 1.1	 0.9;
	 188	 2	 0	 0	 0	 0	 15	 1	 0	 500	 15	 1.1	 0.9;
	 189	 2	 0	 0	 0	 0	 15	 1	 0	 500	 15	 1.1	 0.9;
	 190	 1	 15.98	 11.47	 0	 0	 15	 1	 0	 500	 15	 1.1	 0.9;
	 191	 2	 0	 0	 0	 0	 15	 1	 0	 500	 15	 1.1	 0.9;
	 192	 2	 0	 0	 0	 0	 15	 1	 0	 500	 15	 1.1	 0.9;
	 193	 1	 169.61	 48.39	 0	 0	 15	 1	 0	 345	 15	 1.1	 0.9;
	 194	 2	 0	 0	 0	 0	 15	 1	 0	 345	 15	 1.1	 0.9;
	 195	 1	 700.94	 41.96	 0	-0.28	 15	 1	 0	 345	 15	 1.1	 0.9;
	 196	 2	 0	 0	 0	 0	 15	 1	 0	 345	 15	 1.1	 0.9;
	 197	 1	 0	 0	 0	 0	 15	 1	 0	 345	 15	 1.1	 0.9;
	 198	 2	 0	 0	 0	 0	 15	 1	 0	 345	 15	 1.1	 0.9;
	 199	 2	 0	 0	 0	 0	 15	 1	 0	 345	 15	 1.1	 0.9;
	 200	 1	 0	 0	 0	 0	 15	 1	 0	 500	 15	 1.1	 0.9;
...
];

mpc_regionR1.gen = [
%	bus         Pg          Qg          Qmax        Qmin        Vg          mBase       status      Pmax        Pmin        Pc1         Pc2         Qc1min      Qc1max      Qc2min      Qc2max      ramp_agc    ramp_10     ramp_30     ramp_q      apf         
	 3	 0	 0	 33.33	-33.33	 1	 100	 0	 137.96	 122.97	 0	 0	 0	 0	 0	 0	 0	 0	 0	 0	 137.965;
	 7	 0	 0	 33.33	-33.33	 1	 100	 0	 53.54	 38.54	 0	 0	 0	 0	 0	 0	 0	 0	 0	 0	 53.537;
	 8	 0	 0	 33.33	-33.33	 1	 100	 0	 284.08	 269.08	 0	 0	 0	 0	 0	 0	 0	 0	 0	 0	 284.075;
	 11	 0	 0	 33.33	-33.33	 1	 100	 0	 42.02	 27.02	 0	 0	 0	 0	 0	 0	 0	 0	 0	 0	 42.024;
	 15	-10.5	 21.5	 105	-62	 1	 216.55	 1	 179	-200	 0	 0	 0	 0	 0	 0	 0	 0	 0	 0	 179;
	 15	-10.5	 21.5	 105	-62	 1	 179	 1	 179	-200	 0	 0	 0	 0	 0	 0	 0	 0	 0	 0	 179;
	 15	-10.5	 27.5	 130	-75	 1	 179	 1	 179	-200	 0	 0	 0	 0	 0	 0	 0	 0	 0	 0	 179;
	 16	-10.5	 30	 160	-100	 1	 179	 1	 179	-200	 0	 0	 0	 0	 0	 0	 0	 0	 0	 0	 179;
	 18	 40.5	-72	 35	-179	 1	 58.99	 1	 55	 26	 0	 0	 0	 0	 0	 0	 0	 0	 0	 0	 55;
	 19	 0	 0	 18.33	-18.33	 1	 55	 0	 55	 26	 0	 0	 0	 0	 0	 0	 0	 0	 0	 0	 55;
	 21	 142	 3.5	 189	-182	 1	 0.36	 1	 284	 0	 0	 0	 0	 0	 0	 0	 0	 0	 0	 0	 284;
	 27	 9	 14.5	 199	-170	 1	 18	 1	 18	 0	 0	 0	 0	 0	 0	 0	 0	 0	 0	 0	 18;
	 28	 11	 12	 189	-165	 1	 22	 1	 22	 0	 0	 0	 0	 0	 0	 0	 0	 0	 0	 0	 22;
	 33	 131	-2	 180	-184	 1	 0.24	 1	 262	 0	 0	 0	 0	 0	 0	 0	 0	 0	 0	 0	 262;
	 35	 137.375	 0	 31.53	-31.53	 1	 100	 1	 273	 1.75	 0	 0	 0	 0	 0	 0	 0	 0	 0	 0	 273;
	 38	 150	 7	 193	-179	 1	 2	 1	 299	 1	 0	 0	 0	 0	 0	 0	 0	 0	 0	 0	 299;
	 44	 142	 2.5	 189	-184	 1	 1	 1	 284	 0	 0	 0	 0	 0	 0	 0	 0	 0	 0	 0	 284;
	 45	 128	 6.5	 183	-170	 1	 1.08	 1	 256	 0	 0	 0	 0	 0	 0	 0	 0	 0	 0	 0	 256;
	 51	 145.5	 5	 188	-178	 1	 0.12	 1	 291	 0	 0	 0	 0	 0	 0	 0	 0	 0	 0	 0	 291;
	 57	 147	 9.5	 197	-178	 1	 9	 1	 294	 0	 0	 0	 0	 0	 0	 0	 0	 0	 0	 0	 294;
	 59	 130.5	 2	 185	-181	 1	 0.24	 1	 261	 0	 0	 0	 0	 0	 0	 0	 0	 0	 0	 0	 261;
	 68	 213.585	 0	 384.45	-384.45	 1	 100	 1	 427.17	 0	 0	 0	 0	 0	 0	 0	 0	 0	 0	 0	 427.171;
	 69	 213.5	 0	 384.3	-384.3	 1	 100	 1	 427	 0	 0	 0	 0	 0	 0	 0	 0	 0	 0	 0	 427.003;
	 71	 213.21	 0	 383.78	-383.78	 1	 100	 1	 426.42	 0	 0	 0	 0	 0	 0	 0	 0	 0	 0	 0	 426.422;
	 72	 213.235	 0	 383.82	-383.82	 1	 100	 1	 426.47	 0	 0	 0	 0	 0	 0	 0	 0	 0	 0	 0	 426.467;
	 73	 174.75	 0	 314.55	-314.55	 1	 100	 1	 349.5	 0	 0	 0	 0	 0	 0	 0	 0	 0	 0	 0	 349.5;
	 74	 174.75	 0	 314.55	-314.55	 1	 100	 1	 349.5	 0	 0	 0	 0	 0	 0	 0	 0	 0	 0	 0	 349.5;
	 75	 213	 0	 383.4	-383.4	 1	 100	 1	 426	 0	 0	 0	 0	 0	 0	 0	 0	 0	 0	 0	 426;
	 76	 172.5	 0	 310.5	-310.5	 1	 100	 1	 345	 0	 0	 0	 0	 0	 0	 0	 0	 0	 0	 0	 345;
	 77	 172.5	 0	 310.5	-310.5	 1	 100	 1	 345	 0	 0	 0	 0	 0	 0	 0	 0	 0	 0	 0	 345;
	 78	 213.44	 0	 384.19	-384.19	 1	 100	 1	 426.88	 0	 0	 0	 0	 0	 0	 0	 0	 0	 0	 0	 426.88;
	 80	 213.47	 0	 384.25	-384.25	 1	 100	 1	 426.94	 0	 0	 0	 0	 0	 0	 0	 0	 0	 0	 0	 426.944;
	 81	 213.47	 0	 384.25	-384.25	 1	 100	 1	 426.94	 0	 0	 0	 0	 0	 0	 0	 0	 0	 0	 0	 426.944;
	 82	 0	 0	 33.33	-33.33	 1	 100	 0	 397.21	 382.21	 0	 0	 0	 0	 0	 0	 0	 0	 0	 0	 397.208;
	 83	 0	 0	 33.33	-33.33	 1	 100	 0	 300	 0	 0	 0	 0	 0	 0	 0	 0	 0	 0	 0	 300;
	 84	 279.815	-6.13	 49.06	-61.32	 1	 100	 1	 398.37	 161.26	 0	 0	 0	 0	 0	 0	 0	 0	 0	 0	 398.372;
	 85	 0	 0	 33.33	-33.33	 1	 100	 0	 297	 0	 0	 0	 0	 0	 0	 0	 0	 0	 0	 0	 297;
	 85	 0	 0	 33.33	-33.33	 1	 100	 0	 299	 0	 0	 0	 0	 0	 0	 0	 0	 0	 0	 0	 299;
	 85	 463.885	 0	 213.75	-213.75	 1	 100	 1	 789.51	 138.26	 0	 0	 0	 0	 0	 0	 0	 0	 0	 0	 789.511;
	 86	 946.055	-10.28	 82.22	-102.78	 1	 100	 1	 1109.15	 782.96	 0	 0	 0	 0	 0	 0	 0	 0	 0	 0	 1109.155;
	 87	 0	 0	 33.33	-33.33	 1	 100	 0	 893.59	 878.59	 0	 0	 0	 0	 0	 0	 0	 0	 0	 0	 893.593;
	 94	 0	 0	 33.33	-33.33	 1	 100	 0	 113.16	 98.16	 0	 0	 0	 0	 0	 0	 0	 0	 0	 0	 113.164;
	 96	 312	 0	 561.6	-561.6	 1	 100	 1	 624	 0	 0	 0	 0	 0	 0	 0	 0	 0	 0	 0	 623.996;
	 104	 149.875	 0	 31.25	-31.25	 1	 100	 1	 173.61	 126.14	 0	 0	 0	 0	 0	 0	 0	 0	 0	 0	 173.611;
	 105	 141.985	 0	 137.78	-137.78	 1	 100	 1	 173.37	 110.6	 0	 0	 0	 0	 0	 0	 0	 0	 0	 0	 173.374;
	 119	 0	 0	 33.33	-33.33	 1	 100	 0	 300	 0	 0	 0	 0	 0	 0	 0	 0	 0	 0	 0	 300;
	 123	 331.745	 0	 14.58	-14.58	 1	 100	 1	 398.09	 265.4	 0	 0	 0	 0	 0	 0	 0	 0	 0	 0	 398.094;
	 124	 0	 0	 33.33	-33.33	 1	 100	 0	 67.17	 52.17	 0	 0	 0	 0	 0	 0	 0	 0	 0	 0	 67.172;
	 127	 126	 0	 180	-180	 1	 1	 1	 252	 0	 0	 0	 0	 0	 0	 0	 0	 0	 0	 0	 252;
	 127	 0	 0	 1	-1	 1	 3	 0	 260	 0	 0	 0	 0	 0	 0	 0	 0	 0	 0	 0	 260;
	 129	 0	 0	 33.33	-33.33	 1	 100	 0	 286	 4.69	 0	 0	 0	 0	 0	 0	 0	 0	 0	 0	 286;
	 130	 0	 0	 9.33	-9.33	 1	 28	 0	 28	 4	 0	 0	 0	 0	 0	 0	 0	 0	 0	 0	 28;
	 130	 7.5	 1	 186	-184	 1	 13	 1	 13	 2	 0	 0	 0	 0	 0	 0	 0	 0	 0	 0	 13;
	 130	 0	 0	 4.33	-4.33	 1	 13	 0	 13	 2	 0	 0	 0	 0	 0	 0	 0	 0	 0	 0	 13;
	 134	 0	 0	 8.33	-8.33	 1	 25	 0	 30	 15	 0	 0	 0	 0	 0	 0	 0	 0	 0	 0	 30;
	 134	 46.195	-66.5	 35	-168	 1	 67.62	 1	 66.39	 26	 0	 0	 0	 0	 0	 0	 0	 0	 0	 0	 66.395;
	 134	 0	 0	 18.33	-18.33	 1	 55	 0	 55	 26	 0	 0	 0	 0	 0	 0	 0	 0	 0	 0	 55;
	 135	 0	 0	 18.33	-18.33	 1	 55	 0	 55	 24	 0	 0	 0	 0	 0	 0	 0	 0	 0	 0	 55;
	 135	 0	 0	 18.33	-18.33	 1	 55	 0	 55	 25	 0	 0	 0	 0	 0	 0	 0	 0	 0	 0	 55;
	 136	 57.43	 0	 30.05	-30.05	 1	 100	 1	 76.37	 38.49	 0	 0	 0	 0	 0	 0	 0	 0	 0	 0	 76.368;
	 142	 0	 0	 2.67	-2.67	 1	 8	 0	 281	 0	 0	 0	 0	 0	 0	 0	 0	 0	 0	 0	 281;
	 157	 141.5	 4	 193	-185	 1	 3	 1	 283	 0	 0	 0	 0	 0	 0	 0	 0	 0	 0	 0	 283;
	 157	 0	 0	 1	-1	 1	 3	 0	 257	 0	 0	 0	 0	 0	 0	 0	 0	 0	 0	 0	 257;
	 158	 7.5	 13.5	 197	-170	 1	 15	 1	 15	 0	 0	 0	 0	 0	 0	 0	 0	 0	 0	 0	 15;
	 161	 0	 0	 33.33	-33.33	 1	 100	 0	 272	 0	 0	 0	 0	 0	 0	 0	 0	 0	 0	 0	 272;
	 164	 132	 3	 178	-172	 1	 4	 1	 264	 0	 0	 0	 0	 0	 0	 0	 0	 0	 0	 0	 264;
	 175	 203.325	 0	 365.98	-365.98	 1	 100	 1	 406.65	 0	 0	 0	 0	 0	 0	 0	 0	 0	 0	 0	 406.648;
	 176	 203.125	 0	 365.63	-365.63	 1	 100	 1	 406.25	 0	 0	 0	 0	 0	 0	 0	 0	 0	 0	 0	 406.252;
	 177	 203.305	 0	 365.94	-365.94	 1	 100	 1	 406.61	 0	 0	 0	 0	 0	 0	 0	 0	 0	 0	 0	 406.605;
	 178	 203.27	 0	 365.89	-365.89	 1	 100	 1	 406.54	 0	 0	 0	 0	 0	 0	 0	 0	 0	 0	 0	 406.539;
	 180	 201.725	 0	 363.1	-363.1	 1	 100	 1	 403.45	 0	 0	 0	 0	 0	 0	 0	 0	 0	 0	 0	 403.446;
	 181	 201.725	 0	 363.1	-363.1	 1	 100	 1	 403.45	 0	 0	 0	 0	 0	 0	 0	 0	 0	 0	 0	 403.446;
	 182	 201.725	 0	 363.1	-363.1	 1	 100	 1	 403.45	 0	 0	 0	 0	 0	 0	 0	 0	 0	 0	 0	 403.446;
	 184	 201.99	 0	 363.58	-363.58	 1	 100	 1	 403.98	 0	 0	 0	 0	 0	 0	 0	 0	 0	 0	 0	 403.976;
	 185	 201.99	 0	 363.58	-363.58	 1	 100	 1	 403.98	 0	 0	 0	 0	 0	 0	 0	 0	 0	 0	 0	 403.976;
	 186	 202.01	 0	 363.62	-363.62	 1	 100	 1	 404.02	 0	 0	 0	 0	 0	 0	 0	 0	 0	 0	 0	 404.019;
	 188	 202.455	 0	 364.42	-364.42	 1	 100	 1	 404.91	 0	 0	 0	 0	 0	 0	 0	 0	 0	 0	 0	 404.908;
	 189	 202.045	 0	 363.68	-363.68	 1	 100	 1	 404.09	 0	 0	 0	 0	 0	 0	 0	 0	 0	 0	 0	 404.09;
	 191	 201.72	 0	 363.1	-363.1	 1	 100	 1	 403.44	 0	 0	 0	 0	 0	 0	 0	 0	 0	 0	 0	 403.442;
	 192	 201.915	 0	 363.45	-363.45	 1	 100	 1	 403.83	 0	 0	 0	 0	 0	 0	 0	 0	 0	 0	 0	 403.829;
	 194	 203.525	 0	 366.35	-366.35	 1	 100	 1	 407.05	 0	 0	 0	 0	 0	 0	 0	 0	 0	 0	 0	 407.053;
	 196	 203.825	 0	 366.88	-366.88	 1	 100	 1	 407.65	 0	 0	 0	 0	 0	 0	 0	 0	 0	 0	 0	 407.649;
	 198	 201.06	 0	 361.9	-361.9	 1	 100	 1	 402.12	 0	 0	 0	 0	 0	 0	 0	 0	 0	 0	 0	 402.115;
	 199	 201.08	 0	 361.94	-361.94	 1	 100	 1	 402.16	 0	 0	 0	 0	 0	 0	 0	 0	 0	 0	 0	 402.157;
	 201	 183.75	 0	 330.75	-330.75	 1	 100	 1	 367.5	 0	 0	 0	 0	 0	 0	 0	 0	 0	 0	 0	 367.5;
	 203	 183.75	 0	 330.75	-330.75	 1	 100	 1	 367.5	 0	 0	 0	 0	 0	 0	 0	 0	 0	 0	 0	 367.5;
	 204	 183.75	 0	 330.75	-330.75	 1	 100	 1	 367.5	 0	 0	 0	 0	 0	 0	 0	 0	 0	 0	 0	 367.5;
	 206	 135	 0	 194.4	-194.4	 1	 100	 1	 270	 0	 0	 0	 0	 0	 0	 0	 0	 0	 0	 0	 270;
	 207	 135	 0	 194.4	-194.4	 1	 100	 1	 270	 0	 0	 0	 0	 0	 0	 0	 0	 0	 0	 0	 270;
	 208	 135	 0	 194.4	-194.4	 1	 100	 1	 270	 0	 0	 0	 0	 0	 0	 0	 0	 0	 0	 0	 270;
	 209	 135	 0	 194.4	-194.4	 1	 100	 1	 270	 0	 0	 0	 0	 0	 0	 0	 0	 0	 0	 0	 270;
	 210	 151.875	 0	 218.7	-218.7	 1	 100	 1	 303.75	 0	 0	 0	 0	 0	 0	 0	 0	 0	 0	 0	 303.75;
	 211	 151.875	 0	 218.7	-218.7	 1	 100	 1	 303.75	 0	 0	 0	 0	 0	 0	 0	 0	 0	 0	 0	 303.75;
	 212	 135.565	 0	 195.21	-195.21	 1	 100	 1	 271.13	 0	 0	 0	 0	 0	 0	 0	 0	 0	 0	 0	 271.125;
	 213	 135.565	 0	 195.21	-195.21	 1	 100	 1	 271.13	 0	 0	 0	 0	 0	 0	 0	 0	 0	 0	 0	 271.125;
	 214	 135.565	 0	 195.21	-195.21	 1	 100	 1	 271.13	 0	 0	 0	 0	 0	 0	 0	 0	 0	 0	 0	 271.125;
	 215	 173.4	 0	 312.12	-312.12	 1	 100	 1	 346.8	 0	 0	 0	 0	 0	 0	 0	 0	 0	 0	 0	 346.8;
	 217	 143.905	 0	 207.23	-207.23	 1	 100	 1	 287.81	 0	 0	 0	 0	 0	 0	 0	 0	 0	 0	 0	 287.812;
	 218	 143.905	 0	 207.23	-207.23	 1	 100	 1	 287.81	 0	 0	 0	 0	 0	 0	 0	 0	 0	 0	 0	 287.812;
	 219	 143.905	 0	 207.23	-207.23	 1	 100	 1	 287.81	 0	 0	 0	 0	 0	 0	 0	 0	 0	 0	 0	 287.812;
	 220	 143.905	 0	 207.23	-207.23	 1	 100	 1	 287.81	 0	 0	 0	 0	 0	 0	 0	 0	 0	 0	 0	 287.812;
	 222	 143.905	 0	 207.23	-207.23	 1	 100	 1	 287.81	 0	 0	 0	 0	 0	 0	 0	 0	 0	 0	 0	 287.812;
	 223	 143.905	 0	 207.23	-207.23	 1	 100	 1	 287.81	 0	 0	 0	 0	 0	 0	 0	 0	 0	 0	 0	 287.812;
	 224	 143.905	 0	 207.23	-207.23	 1	 100	 1	 287.81	 0	 0	 0	 0	 0	 0	 0	 0	 0	 0	 0	 287.812;
	 225	 143.905	 0	 207.23	-207.23	 1	 100	 1	 287.81	 0	 0	 0	 0	 0	 0	 0	 0	 0	 0	 0	 287.812;
	 226	 195.995	 0	 352.8	-352.8	 1	 100	 1	 391.99	 0	 0	 0	 0	 0	 0	 0	 0	 0	 0	 0	 391.994;
	 227	 196.035	 0	 352.86	-352.86	 1	 100	 1	 392.07	 0	 0	 0	 0	 0	 0	 0	 0	 0	 0	 0	 392.066;
	 228	 0	 0	 33.33	-33.33	 1	 100	 0	 260	 0	 0	 0	 0	 0	 0	 0	 0	 0	 0	 0	 260;
	 230	 202.515	 0	 364.53	-364.53	 1	 100	 1	 405.03	 0	 0	 0	 0	 0	 0	 0	 0	 0	 0	 0	 405.03;
	 231	 202.49	 0	 364.49	-364.49	 1	 100	 1	 404.98	 0	 0	 0	 0	 0	 0	 0	 0	 0	 0	 0	 404.985;
	 232	 202.525	 0	 364.55	-364.55	 1	 100	 1	 405.05	 0	 0	 0	 0	 0	 0	 0	 0	 0	 0	 0	 405.051;
	 233	 202.515	 0	 364.53	-364.53	 1	 100	 1	 405.03	 0	 0	 0	 0	 0	 0	 0	 0	 0	 0	 0	 405.028;
	 235	 158.44	 0	 228.15	-228.15	 1	 100	 1	 316.88	 0	 0	 0	 0	 0	 0	 0	 0	 0	 0	 0	 316.875;
	 236	 158.44	 0	 228.15	-228.15	 1	 100	 1	 316.88	 0	 0	 0	 0	 0	 0	 0	 0	 0	 0	 0	 316.875;
	 237	 158.44	 0	 228.15	-228.15	 1	 100	 1	 316.88	 0	 0	 0	 0	 0	 0	 0	 0	 0	 0	 0	 316.875;
	 238	 196.5	 0	 353.7	-353.7	 1	 100	 1	 393	 0	 0	 0	 0	 0	 0	 0	 0	 0	 0	 0	 393;
	 239	 163.125	 0	 234.9	-234.9	 1	 100	 1	 326.25	 0	 0	 0	 0	 0	 0	 0	 0	 0	 0	 0	 326.25;
	 240	 163.125	 0	 234.9	-234.9	 1	 100	 1	 326.25	 0	 0	 0	 0	 0	 0	 0	 0	 0	 0	 0	 326.25;
	 241	 157.5	 0	 226.8	-226.8	 1	 100	 1	 315	 0	 0	 0	 0	 0	 0	 0	 0	 0	 0	 0	 315;
	 242	 203.345	 0	 366.02	-366.02	 1	 100	 1	 406.69	 0	 0	 0	 0	 0	 0	 0	 0	 0	 0	 0	 406.694;
	 244	 198.96	 0	 358.13	-358.13	 1	 100	 1	 397.92	 0	 0	 0	 0	 0	 0	 0	 0	 0	 0	 0	 397.923;
	 245	 198.96	 0	 358.13	-358.13	 1	 100	 1	 397.92	 0	 0	 0	 0	 0	 0	 0	 0	 0	 0	 0	 397.923;
	 246	 198.96	 0	 358.13	-358.13	 1	 100	 1	 397.92	 0	 0	 0	 0	 0	 0	 0	 0	 0	 0	 0	 397.923;
	 248	 41.25	 0	 59.4	-59.4	 1	 100	 1	 82.5	 0	 0	 0	 0	 0	 0	 0	 0	 0	 0	 0	 82.5;
	 249	 41.25	 0	 59.4	-59.4	 1	 100	 1	 82.5	 0	 0	 0	 0	 0	 0	 0	 0	 0	 0	 0	 82.5;
	 250	 42.19	 0	 60.75	-60.75	 1	 100	 1	 84.38	 0	 0	 0	 0	 0	 0	 0	 0	 0	 0	 0	 84.375;
	 251	 42.19	 0	 60.75	-60.75	 1	 100	 1	 84.38	 0	 0	 0	 0	 0	 0	 0	 0	 0	 0	 0	 84.375;
	 252	 42.19	 0	 60.75	-60.75	 1	 100	 1	 84.38	 0	 0	 0	 0	 0	 0	 0	 0	 0	 0	 0	 84.375;
	 253	 42.19	 0	 60.75	-60.75	 1	 100	 1	 84.38	 0	 0	 0	 0	 0	 0	 0	 0	 0	 0	 0	 84.375;
	 255	 181.875	 0	 327.38	-327.38	 1	 100	 1	 363.75	 0	 0	 0	 0	 0	 0	 0	 0	 0	 0	 0	 363.75;
	 256	 181.875	 0	 327.38	-327.38	 1	 100	 1	 363.75	 0	 0	 0	 0	 0	 0	 0	 0	 0	 0	 0	 363.75;
	 257	 109.685	 0	 157.95	-157.95	 1	 100	 1	 219.37	 0	 0	 0	 0	 0	 0	 0	 0	 0	 0	 0	 219.375;
	 258	 109.685	 0	 157.95	-157.95	 1	 100	 1	 219.37	 0	 0	 0	 0	 0	 0	 0	 0	 0	 0	 0	 219.375;
	 316	 49.55	-5.625	 45	-56.25	 1	 100	 1	 78.29	 20.81	 0	 0	 0	 0	 0	 0	 0	 0	 0	 0	 78.287;
];

mpc_regionR1.branch = [
%	fbus        tbus        r           x           b           rateA       rateB       rateC       ratio       angle       status      angmin      angmax      
	 1	 2	 0.00051	 0.0275	 0	 400	 400	 400	 1.07702	 0	 1	-30	 30;
	 2	 3	 1e-05	 6e-05	 0	 1593	 1593	 1593	 0	 0	 1	-30	 30;
	 2	 14	 0.00131	 0.01547	 0.41152	 838	 838	 838	 0	 0	 1	-30	 30;
	 3	 79	 0.0001	 0.01	 0	 195.73	 234.87	 293.59	 0	 0	 1	-30	 30;
	 4	 5	 1e-05	 6e-05	 0	 1593	 1593	 1593	 0	 0	 1	-30	 30;
	 6	 4	 0.00084	 0.06858	 0	 250	 250	 250	 0.9999	 0	 1	-30	 30;
	 4	 8	 0.00224	 0.02606	 0.70304	 831	 831	 831	 0	 0	 1	-30	 30;
	 4	 66	 0.00033	 0.00388	 0.10475	 831	 831	 831	 0	 0	 1	-30	 30;
	 5	 10	 0.0024	 0.02795	 0.75408	 838	 838	 838	 0	 0	 1	-30	 30;
	 5	 16	 0.00133	 0.01553	 0.41898	 831	 831	 831	 0	 0	 1	-30	 30;
	 22	 5	 0.00129	 0.06437	 0	 250	 250	 250	 1.10126	 0	 1	-30	 30;
	 23	 6	 0.00496	 0.06982	 0	 64.99	 84.49	 84.49	 0.98438	 0	 1	-30	 30;
	 6	 86	 0.0001	 0.01	 0	 185.05	 222.06	 277.58	 0	 0	 1	-30	 30;
	 24	 7	 0.00015	 0.06524	 0	 160	 160	 160	 1.07325	 0	 1	-30	 30;
	 7	 291	 0.0001	 0.01	 0	 83.7	 98.6	 125.55	 0	 0	 1	-30	 30;
	 8	 9	 1e-05	 6e-05	 0	 1593	 1593	 1593	 0	 0	 1	-30	 30;
	 8	 90	 0.0001	 0.01	 0	 341.31	 409.57	 511.96	 0	 0	 1	-30	 30;
	 10	 11	 1e-05	 6e-05	 0	 1593	 1593	 1593	 0	 0	 1	-30	 30;
	 12	 10	 0.00113	 0.05647	 0	 330	 330	 330	 0.9999	 0	 1	-30	 30;
	 11	 126	 0.0001	 0.01	 0	 124.91	 149.89	 187.36	 0	 0	 1	-30	 30;
	 37	 12	 0.00423	 0.07177	 0	 260	 312	 390	 0.96037	 0	 1	-30	 30;
	 12	 124	 0.0001	 0.01	 0	 141.05	 169.27	 211.58	 0	 0	 1	-30	 30;
	 13	 14	 1e-05	 6e-05	 0	 1593	 1593	 1593	 0	 0	 1	-30	 30;
	 13	 15	 0.0015	 0.01768	 0.46944	 831	 831	 831	 0	 0	 1	-30	 30;
	 49	 13	 0.00059	 0.04206	 0	 330	 330	 330	 1.04877	 0	 1	-30	 30;
	 15	 16	 1e-05	 6e-05	 0	 1593	 1593	 1593	 0	 0	 1	-30	 30;
	 64	 15	 0.00137	 0.05969	 0	 250	 250	 250	 1.05449	 0	 1	-30	 30;
	 65	 15	 0.00137	 0.05969	 0	 250	 250	 250	 1.05312	 0	 1	-30	 30;
	 15	 66	 0.001	 0.01165	 0.31426	 831	 831	 831	 0	 0	 1	-30	 30;
	 17	 33	 0.021	 0.0679	 0.00696	 101	 101	 101	 0	 0	 1	-30	 30;
	 17	 64	 0.02139	 0.06954	 0.00729	 120	 120	 120	 0	 0	 1	-30	 30;
	 18	 19	 8e-05	 0.00083	 0	 438	 438	 438	 0	 0	 1	-30	 30;
	 18	 24	 0.03025	 0.09752	 0.01002	 86	 86	 86	 0	 0	 1	-30	 30;
	 18	 26	 0.00983	 0.01736	 0.0016	 137	 137	 137	 0	 0	 1	-30	 30;
	 18	 64	 0.03669	 0.11818	 0.01217	 123	 123	 123	 0	 0	 1	-30	 30;
	 19	 36	 0.00711	 0.02314	 0.00234	 124	 124	 124	 0	 0	 1	-30	 30;
	 19	 43	 0.00331	 0.01074	 0.00109	 137	 137	 137	 0	 0	 1	-30	 30;
	 20	 24	 0.01116	 0.01529	 0.00275	 114	 114	 114	 0	 0	 1	-30	 30;
	 20	 35	 0.01116	 0.01529	 0.00275	 149.21	 179.06	 223.82	 0	 0	 1	-30	 30;
	 21	 33	 0.0405	 0.07107	 0.00673	 154.14	 184.97	 231.21	 0	 0	 1	-30	 30;
	 21	 48	 0.04628	 0.07107	 0.0076	 141.9	 170.28	 212.85	 0	 0	 1	-30	 30;
	 22	 40	 0.00124	 0.00413	 0.00041	 137	 137	 137	 0	 0	 1	-30	 30;
	 24	 44	 0.00124	 0.00413	 0.00039	 128	 128	 128	 0	 0	 1	-30	 30;
	 24	 60	 0.01977	 0.06457	 0.00658	 123	 123	 123	 0	 0	 1	-30	 30;
	 24	 61	 0.00218	 0.00712	 0.00073	 123	 123	 123	 0	 0	 1	-30	 30;
	 25	 26	 8e-05	 0.00083	 0	 438	 438	 438	 0	 0	 1	-30	 30;
	 25	 30	 0.00124	 0.00413	 0.00039	 128	 128	 128	 0	 0	 1	-30	 30;
	 25	 55	 0.00099	 0.00347	 0.00036	 137	 137	 137	 0	 0	 1	-30	 30;
	 25	 60	 0.01083	 0.03471	 0.00358	 137	 137	 137	 0	 0	 1	-30	 30;
	 26	 29	 0.00496	 0.01273	 0.00128	 95	 95	 95	 0	 0	 1	-30	 30;
	 26	 54	 0.00124	 0.00413	 0.00039	 128	 128	 128	 0	 0	 1	-30	 30;
	 27	 28	 0.00142	 0.00465	 0.00047	 123	 123	 123	 0	 0	 1	-30	 30;
	 27	 57	 0.00408	 0.01332	 0.00136	 123	 123	 123	 0	 0	 1	-30	 30;
	 28	 65	 0.01705	 0.05552	 0.00567	 137	 137	 137	 0	 0	 1	-30	 30;
	 29	 41	 0.00372	 0.00934	 0.00094	 120	 120	 120	 0	 0	 1	-30	 30;
	 30	 54	 0.00124	 0.00413	 0.00039	 128	 128	 128	 0	 0	 1	-30	 30;
	 31	 61	 0.00133	 0.00434	 0.00044	 123	 123	 123	 0	 0	 1	-30	 30;
	 32	 36	 0.00289	 0.00926	 0.00094	 137	 137	 137	 0	 0	 1	-30	 30;
	 32	 55	 0.00207	 0.00694	 0.0007	 137	 137	 137	 0	 0	 1	-30	 30;
	 33	 34	 0.00413	 0.01372	 0.00138	 62	 62	 62	 0	 0	 1	-30	 30;
	 34	 59	 0.03438	 0.06099	 0.00569	 62	 62	 62	 0	 0	 1	-30	 30;
	 35	 145	 0.0001	 0.01	 0	 156.61	 187.93	 234.91	 0	 0	 1	-30	 30;
	 38	 59	 0.0395	 0.1281	 0.01314	 78.74	 94.48	 118.11	 0	 0	 1	-30	 30;
	 38	 65	 0.00165	 0.00496	 0.00053	 137	 137	 137	 0	 0	 1	-30	 30;
	 39	 62	 0.00026	 0.00066	 7e-05	 69	 69	 69	 0	 0	 1	-30	 30;
	 41	 61	 0.0235	 0.07683	 0.00783	 123	 123	 123	 0	 0	 1	-30	 30;
	 42	 43	 0.00645	 0.02066	 0.00213	 137	 137	 137	 0	 0	 1	-30	 30;
	 42	 57	 0.04174	 0.07322	 0.00692	 90	 90	 90	 0	 0	 1	-30	 30;
	 42	 58	 0.01132	 0.03636	 0.00375	 137	 137	 137	 0	 0	 1	-30	 30;
	 45	 50	 0.00862	 0.02752	 0.00296	 101	 101	 101	 0	 0	 1	-30	 30;
	 45	 53	 0.00891	 0.01566	 0.00148	 63.08	 82	 82	 0	 0	 1	-30	 30;
	 46	 47	 0.03347	 0.06529	 0.00593	 69	 69	 69	 0	 0	 1	-30	 30;
	 47	 49	 0.04351	 0.09356	 0.00962	 54.76	 71.18	 71.18	 0	 0	 1	-30	 30;
	 48	 51	 0.01653	 0.03306	 0.00242	 136.03	 163.23	 204.04	 0	 0	 1	-30	 30;
	 49	 50	 8e-05	 0.00083	 0	 438	 438	 438	 0	 0	 1	-30	 30;
	 49	 56	 0.02394	 0.04718	 0.00469	 58.83	 76.48	 76.48	 0	 0	 1	-30	 30;
	 50	 52	 0.0328	 0.07474	 0.00784	 73.97	 96.16	 96.16	 0	 0	 1	-30	 30;
	 51	 52	 8e-05	 0.00083	 0	 438	 438	 438	 0	 0	 1	-30	 30;
	 51	 53	 0.00496	 0.00826	 0.00085	 90.93	 109.12	 136.4	 0	 0	 1	-30	 30;
	 51	 63	 0.00745	 0.01889	 0.00192	 104	 104	 104	 0	 0	 1	-30	 30;
	 56	 62	 0.01686	 0.05427	 0.00558	 69	 69	 69	 0	 0	 1	-30	 30;
	 58	 64	 0.01721	 0.05623	 0.00573	 140	 140	 140	 0	 0	 1	-30	 30;
	 64	 65	 8e-05	 0.00083	 0	 438	 438	 438	 0	 0	 1	-30	 30;
	 67	 68	 0.00068	 0.02772	 0	 423.22	 507.87	 761.8	 1.01	 0	 1	-30	 30;
	 67	 69	 0.00075	 0.02715	 0	 423.12	 507.74	 761.61	 1.01	 0	 1	-30	 30;
	 67	 70	 2e-05	 0.005	 0	 1365.22	 1638.27	 2457.4	 0	 0	 1	-30	 30;
	 67	 76	 0.00086	 0.04807	 0	 418.13	 501.75	 752.63	 1.01	 0	 1	-30	 30;
	 67	 77	 0.00086	 0.04807	 0	 418.13	 501.75	 752.63	 1.01	 0	 1	-30	 30;
	 67	 78	 0.00077	 0.04525	 0	 418.68	 502.41	 753.62	 1.01	 0	 1	-30	 30;
	 67	 98	 0.00046	 0.00707	 1.4224	 2645.78	 3174.93	 3968.66	 0	 0	 1	-30	 30;
	 67	 98	 0.00046	 0.00707	 1.4223	 2645.77	 3174.93	 3968.66	 0	 0	 1	-30	 30;
	 70	 71	 0.0007	 0.02673	 0	 415.77	 498.92	 748.38	 1.01	 0	 1	-30	 30;
	 70	 72	 0.00068	 0.02767	 0	 415.72	 498.86	 748.29	 1.01	 0	 1	-30	 30;
	 70	 73	 0.00086	 0.04807	 0	 414.22	 497.07	 745.6	 1.01	 0	 1	-30	 30;
	 70	 74	 0.00086	 0.04807	 0	 414.22	 497.07	 745.6	 1.01	 0	 1	-30	 30;
	 70	 75	 0.00077	 0.04525	 0	 414.51	 497.41	 746.12	 1.01	 0	 1	-30	 30;
	 70	 96	 0.00012	 0.00189	 0.0773	 920.7	 1104.84	 1381.05	 0	 0	 1	-30	 30;
	 70	 97	 6e-05	 0.00086	 0.0353	 921.23	 1105.48	 1381.85	 0	 0	 1	-30	 30;
	 79	 80	 0.00127	 0.032	 0	 411.72	 494.06	 741.09	 0.992	 0	 1	-30	 30;
	 79	 81	 0.00127	 0.032	 0	 411.72	 494.06	 741.09	 0.992	 0	 1	-30	 30;
	 79	 88	 0.00235	 0.03652	 1.8924	 167.26	 200.71	 301.07	 0	 0	 1	-30	 30;
	 109	 79	 0.00159	 0.08394	 0	 263.84	 316.6	 395.76	 1.01	 0	 1	-30	 30;
	 109	 79	 0.00162	 0.08082	 0	 262.81	 315.38	 394.22	 1.01	 0	 1	-30	 30;
	 82	 83	 0.00077	 0.00828	 0.2725	 936.01	 1123.22	 1404.02	 0	 0	 1	-30	 30;
	 82	 174	 0.0001	 0.01	 0	 958.29	 1149.95	 1437.43	 0	 0	 1	-30	 30;
	 83	 84	 0.00077	 0.00826	 0.2718	 493.18	 591.82	 887.73	 0	 0	 1	-30	 30;
	 83	 86	 0.00015	 0.00237	 0.0966	 1467.07	 1760.49	 2640.73	 0	 0	 1	-30	 30;
	 83	 90	 0.00062	 0.00665	 0.2188	 822.53	 987.03	 1480.55	 0	 0	 1	-30	 30;
	 83	 91	 0.00075	 0.00686	 0.2102	 929.07	 1114.88	 1672.32	 0	 0	 1	-30	 30;
	 83	 96	 0.00039	 0.00604	 0.2466	 538.52	 646.22	 969.33	 0	 0	 1	-30	 30;
	 101	 83	 0.00166	 0.08648	 0	 3.55	 4.26	 6.39	 0.99	 0	 1	-30	 30;
	 102	 83	 0.00119	 0.08174	 0	 210.06	 252.07	 378.11	 1.01	 0	 1	-30	 30;
	 102	 83	 0.00139	 0.08332	 0	 205.92	 247.1	 370.66	 1.01	 0	 1	-30	 30;
	 102	 83	 0.00172	 0.08332	 0	 206.05	 247.26	 370.89	 1.01	 0	 1	-30	 30;
	 83	 119	 0.00157	 0.05061	 0	 260	 312	 390	 0	 0	 1	-30	 30;
	 84	 259	 0.0001	 0.01	 0	 326.66	 391.99	 489.99	 0	 0	 1	-30	 30;
	 85	 92	 0.00016	 0.00245	 0.1002	 728.73	 874.48	 1311.72	 0	 0	 1	-30	 30;
	 104	 85	 0.00169	 0.08244	 0	 207.35	 248.82	 373.23	 1.01	 0	 1	-30	 30;
	 105	 85	 0.00162	 0.08132	 0	 207.75	 249.3	 373.96	 1.01	 0	 1	-30	 30;
	 85	 260	 0.0001	 0.01	 0	 561.84	 674.21	 842.76	 0	 0	 1	-30	 30;
	 87	 88	 0.00117	 0.01252	 0.4122	 486.86	 584.23	 876.35	 0	 0	 1	-30	 30;
	 87	 89	 0.00138	 0.01471	 0.4829	 1155.17	 1386.2	 1732.75	 0	 0	 1	-30	 30;
	 87	 121	 0.01	 0.1	 0	 6.76	 8.12	 12.18	 1.01	 0	 1	-30	 30;
	 87	 229	 0.0001	 0.01	 0	 1164.44	 1397.33	 1746.67	 0	 0	 1	-30	 30;
	 88	 94	 0.0008	 0.01232	 0.9121	 561.57	 673.88	 842.35	 0	 0	 1	-30	 30;
	 88	 96	 0.00111	 0.01554	 0.9397	 480.2	 576.24	 864.36	 0	 0	 1	-30	 30;
	 110	 88	 0.00137	 0.0802	 0	 302.42	 362.9	 453.63	 1.01	 0	 1	-30	 30;
	 110	 88	 0.00104	 0.07958	 0	 303.08	 363.69	 454.62	 1.01	 0	 1	-30	 30;
	 111	 88	 0.00134	 0.08707	 0	 295.72	 354.86	 443.58	 1.01	 0	 1	-30	 30;
	 111	 88	 0.00144	 0.08415	 0	 300.14	 360.16	 450.2	 1.01	 0	 1	-30	 30;
	 89	 93	 0.00049	 0.00522	 0.1717	 1006.03	 1207.23	 1509.04	 0	 0	 1	-30	 30;
	 89	 93	 0.00049	 0.00522	 0.1717	 1006.03	 1207.23	 1509.04	 0	 0	 1	-30	 30;
	 89	 96	 0.00129	 0.01755	 1.0054	 1251.59	 1501.91	 1877.38	 0	 0	 1	-30	 30;
	 115	 89	 0.00122	 0.07916	 0	 239.35	 287.22	 359.03	 1.01	 0	 1	-30	 30;
	 115	 89	 0.0013	 0.0807	 0	 240.07	 288.08	 360.1	 1.01	 0	 1	-30	 30;
	 122	 89	 0.00138	 0.07991	 0	 190.44	 228.52	 285.65	 1.01	 0	 1	-30	 30;
	 122	 89	 0.00114	 0.08103	 0	 190.5	 228.61	 285.76	 1.01	 0	 1	-30	 30;
	 103	 90	 0.00149	 0.08332	 0	 97.34	 116.81	 146.01	 1.01	 0	 1	-30	 30;
	 103	 91	 0.00149	 0.08332	 0	 153.25	 183.9	 229.88	 1.01	 0	 1	-30	 30;
	 92	 96	 0.00055	 0.00849	 0.3468	 702.2	 842.65	 1263.97	 0	 0	 1	-30	 30;
	 93	 98	 0.00172	 0.01571	 0.4811	 823.32	 987.98	 1234.98	 0	 0	 1	-30	 30;
	 93	 98	 0.00172	 0.01571	 0.4811	 823.32	 987.98	 1234.98	 0	 0	 1	-30	 30;
	 118	 94	 0.00099	 0.08179	 0	 296.62	 355.95	 444.93	 1.01	 0	 1	-30	 30;
	 118	 94	 0.001	 0.08174	 0	 296.58	 355.89	 444.87	 1.01	 0	 1	-30	 30;
	 94	 284	 0.0001	 0.01	 0	 545.61	 654.73	 818.41	 0	 0	 1	-30	 30;
	 95	 98	 0.00019	 0.00292	 0.1192	 2149.69	 2579.62	 3224.53	 0	 0	 1	-30	 30;
	 95	 98	 0.00019	 0.00292	 0.1192	 2149.69	 2579.62	 3224.53	 0	 0	 1	-30	 30;
	 120	 95	 0.00138	 0.08024	 0	 4.17	 5	 7.5	 0.994	 0	 1	-30	 30;
	 96	 97	 7e-05	 0.00103	 0.042	 920.37	 1104.44	 1380.55	 0	 0	 1	-30	 30;
	 108	 96	 0.00139	 0.07915	 0	 192.84	 231.4	 347.1	 1.01	 0	 1	-30	 30;
	 108	 96	 0.00185	 0.08081	 0	 188.72	 226.46	 339.7	 1.01	 0	 1	-30	 30;
	 108	 96	 0.00185	 0.08019	 0	 190.19	 228.23	 342.35	 1.01	 0	 1	-30	 30;
	 108	 96	 0.00184	 0.0806	 0	 189.25	 227.1	 340.65	 1.01	 0	 1	-30	 30;
	 108	 96	 0.00184	 0.07956	 0	 191.68	 230.02	 345.03	 1.01	 0	 1	-30	 30;
	 97	 112	 0.01	 0.1	 0	 260	 312	 390	 1.01	 0	 1	-30	 30;
	 97	 113	 0.01	 0.1	 0	 260	 312	 390	 1.01	 0	 1	-30	 30;
	 97	 114	 0.01	 0.1	 0	 260	 312	 390	 1.01	 0	 1	-30	 30;
	 98	 99	 0.00104	 0.00953	 0.2918	 394.68	 473.62	 710.43	 0	 0	 1	-30	 30;
	 98	 100	 0.00104	 0.00953	 0.2918	 342.92	 411.5	 617.25	 0	 0	 1	-30	 30;
	 106	 98	 0.00147	 0.08332	 0	 229.19	 275.03	 412.54	 1.01	 0	 1	-30	 30;
	 107	 98	 0.00146	 0.08332	 0	 229.19	 275.03	 412.54	 1.01	 0	 1	-30	 30;
	 116	 98	 0.00103	 0.07958	 0	 134.37	 161.25	 241.87	 1.01	 0	 1	-30	 30;
	 117	 98	 0.00098	 0.07916	 0	 134.45	 161.33	 242	 1.01	 0	 1	-30	 30;
	 104	 173	 0.0001	 0.01	 0	 190.76	 228.92	 286.15	 0	 0	 1	-30	 30;
	 110	 111	 0	 0.0827	 0	 90.04	 108.05	 135.06	 0	 0	 1	-30	 30;
	 123	 124	 1e-05	 6e-05	 0	 1593	 1593	 1593	 0	 0	 1	-30	 30;
	 125	 123	 0.00084	 0.06858	 0	 388.42	 466.1	 582.63	 0.9999	 0	 1	-30	 30;
	 124	 126	 0.0024	 0.02795	 0.75408	 838	 838	 838	 0	 0	 1	-30	 30;
	 132	 124	 0.00129	 0.06437	 0	 250	 250	 250	 1.10126	 0	 1	-30	 30;
	 131	 125	 0.00044	-0.00422	 0	 381.53	 457.84	 572.3	 1.06772	 0	 1	-30	 30;
	 133	 125	 0.00496	 0.06982	 0	 64.99	 84.49	 84.49	 0.98438	 0	 1	-30	 30;
	 127	 132	 0.00612	 0.0157	 0.00157	 120	 120	 120	 0	 0	 1	-30	 30;
	 127	 134	 0.00331	 0.01091	 0.00111	 137	 137	 137	 0	 0	 1	-30	 30;
	 128	 148	 0.03124	 0.05603	 0.00563	 78	 78	 78	 0	 0	 1	-30	 30;
	 128	 153	 0.0262	 0.04397	 0.00434	 78	 78	 78	 0	 0	 1	-30	 30;
	 129	 164	 0.0395	 0.12455	 0.01176	 73.73	 88.48	 110.6	 0	 0	 1	-30	 30;
	 129	 355	 0.0001	 0.01	 0	 83.7	 98.6	 125.55	 0	 0	 1	-30	 30;
	 130	 131	 0.1	 0.1595	 0.01597	 57	 57	 57	 0	 0	 1	-30	 30;
	 131	 144	 0.00124	 0.00413	 0.00039	 178.65	 214.38	 267.97	 0	 0	 1	-30	 30;
	 131	 150	 0.00793	 0.02231	 0.00215	 123	 123	 123	 0	 0	 1	-30	 30;
	 131	 158	 0.00124	 0.00413	 0.00041	 171.43	 205.72	 257.15	 0	 0	 1	-30	 30;
	 131	 164	 0.05455	 0.18017	 0.0242	 99	 99	 99	 0	 0	 1	-30	 30;
	 132	 135	 0.02074	 0.06727	 0.00682	 137	 137	 137	 0	 0	 1	-30	 30;
	 132	 137	 0.0076	 0.01983	 0.00206	 120	 120	 120	 0	 0	 1	-30	 30;
	 132	 153	 0.01281	 0.02149	 0.00212	 78	 78	 78	 0	 0	 1	-30	 30;
	 132	 159	 0.00124	 0.00413	 0.00041	 137	 137	 137	 0	 0	 1	-30	 30;
	 132	 168	 0.03248	 0.1081	 0.01445	 137	 137	 137	 0	 0	 1	-30	 30;
	 134	 136	 0.01917	 0.02595	 0.00467	 69	 69	 69	 0	 0	 1	-30	 30;
	 134	 155	 0.00504	 0.01686	 0.00174	 137	 137	 137	 0	 0	 1	-30	 30;
	 134	 156	 0.00463	 0.01488	 0.00152	 137	 137	 137	 0	 0	 1	-30	 30;
	 134	 172	 0.00463	 0.01488	 0.00152	 120	 120	 120	 0	 0	 1	-30	 30;
	 135	 150	 0.00132	 0.00421	 0.00044	 137	 137	 137	 0	 0	 1	-30	 30;
	 135	 151	 0.00661	 0.0157	 0.00169	 103	 103	 103	 0	 0	 1	-30	 30;
	 135	 171	 0.00463	 0.01488	 0.00152	 120	 120	 120	 0	 0	 1	-30	 30;
	 136	 140	 0.0395	 0.06959	 0.00657	 102.81	 133.65	 133.65	 0	 0	 1	-30	 30;
	 136	 141	 0.0065	 0.02121	 0.00216	 123	 123	 123	 0	 0	 1	-30	 30;
	 136	 146	 0.03479	 0.1119	 0.01176	 76	 76	 76	 0	 0	 1	-30	 30;
	 136	 151	 0.01405	 0.03636	 0.00399	 103	 103	 103	 0	 0	 1	-30	 30;
	 136	 163	 0.01496	 0.0438	 0.00445	 114	 114	 114	 0	 0	 1	-30	 30;
	 136	 170	 0.015	 0.04714	 0.00466	 114	 114	 114	 0	 0	 1	-30	 30;
...
];

mpc_regionR1.gencost = [
%	2           startup     shutdown    n           c(n-1)...c0 
	 2	 0	 0	 3	 0	 31.497926	 0;
	 2	 0	 0	 3	 0	 53.968846	 0;
	 2	 0	 0	 3	 0	 29.446747	 0;
	 2	 0	 0	 3	 0	 26.786756	 0;
	 2	 0	 0	 3	 0	 24.414856	 0;
	 2	 0	 0	 3	 0	 29.948518	 0;
	 2	 0	 0	 3	 0	 28.412676	 0;
	 2	 0	 0	 3	 0	 55.301877	 0;
	 2	 0	 0	 3	 0	 30.206383	 0;
	 2	 0	 0	 3	 0	 23.813896	 0;
	 2	 0	 0	 3	 0	 46.008664	 0;
	 2	 0	 0	 3	 0	 41.750697	 0;
	 2	 0	 0	 3	 0	 48.712945	 0;
	 2	 0	 0	 3	 0	 16.441286	 0;
	 2	 0	 0	 3	 0	 46.203911	 0;
	 2	 0	 0	 3	 0	 45.377814	 0;
	 2	 0	 0	 3	 0	 25.856876	 0;
	 2	 0	 0	 3	 0	 42.249859	 0;
	 2	 0	 0	 3	 0	 50.452144	 0;
	 2	 0	 0	 3	 0	 7.328937	 0;
	 2	 0	 0	 3	 0	 23.072783	 0;
	 2	 0	 0	 3	 0	 19.351431	 0;
	 2	 0	 0	 3	 0	 41.381319	 0;
	 2	 0	 0	 3	 0	 29.484934	 0;
	 2	 0	 0	 3	 0	 24.710731	 0;
	 2	 0	 0	 3	 0	 24.198983	 0;
	 2	 0	 0	 3	 0	 33.091507	 0;
	 2	 0	 0	 3	 0	 42.122385	 0;
	 2	 0	 0	 3	 0	 22.328785	 0;
	 2	 0	 0	 3	 0	 33.602371	 0;
	 2	 0	 0	 3	 0	 31.711274	 0;
	 2	 0	 0	 3	 0	 36.528751	 0;
	 2	 0	 0	 3	 0	 21.654716	 0;
	 2	 0	 0	 3	 0	 41.861355	 0;
	 2	 0	 0	 3	 0	 23.660788	 0;
	 2	 0	 0	 3	 0	 27.807403	 0;
	 2	 0	 0	 3	 0	 42.314877	 0;
	 2	 0	 0	 3	 0	 44.649901	 0;
	 2	 0	 0	 3	 0	 7.445716	 0;
	 2	 0	 0	 3	 0	 26.01976	 0;
	 2	 0	 0	 3	 0	 25.487575	 0;
	 2	 0	 0	 3	 0	 26.421133	 0;
	 2	 0	 0	 3	 0	 23.187235	 0;
	 2	 0	 0	 3	 0	 24.668888	 0;
	 2	 0	 0	 3	 0	 45.814371	 0;
	 2	 0	 0	 3	 0	 26.594627	 0;
	 2	 0	 0	 3	 0	 24.851869	 0;
	 2	 0	 0	 3	 0	 32.959058	 0;
	 2	 0	 0	 3	 0	 35.617861	 0;
	 2	 0	 0	 3	 0	 22.637953	 0;
	 2	 0	 0	 3	 0	 28.966416	 0;
	 2	 0	 0	 3	 0	 125.913427	 0;
	 2	 0	 0	 3	 0	 111.8849	 0;
	 2	 0	 0	 3	 0	 49.652309	 0;
	 2	 0	 0	 3	 0	 59.075521	 0;
	 2	 0	 0	 3	 0	 32.729963	 0;
	 2	 0	 0	 3	 0	 112.669005	 0;
	 2	 0	 0	 3	 0	 46.057878	 0;
	 2	 0	 0	 3	 0	 34.394304	 0;
	 2	 0	 0	 3	 0	 111.165979	 0;
	 2	 0	 0	 3	 0	 32.925335	 0;
	 2	 0	 0	 3	 0	 42.694362	 0;
	 2	 0	 0	 3	 0	 17.936838	 0;
	 2	 0	 0	 3	 0	 30.874791	 0;
	 2	 0	 0	 3	 0	 26.488096	 0;
	 2	 0	 0	 3	 0	 14.257306	 0;
	 2	 0	 0	 3	 0	 44.172685	 0;
	 2	 0	 0	 3	 0	 9.763452	 0;
	 2	 0	 0	 3	 0	 37.047422	 0;
	 2	 0	 0	 3	 0	 28.566474	 0;
	 2	 0	 0	 3	 0	 27.861615	 0;
	 2	 0	 0	 3	 0	 17.542132	 0;
	 2	 0	 0	 3	 0	 35.834765	 0;
	 2	 0	 0	 3	 0	 15.18605	 0;
	 2	 0	 0	 3	 0	 28.012984	 0;
	 2	 0	 0	 3	 0	 38.579688	 0;
	 2	 0	 0	 3	 0	 35.421239	 0;
	 2	 0	 0	 3	 0	 33.328186	 0;
	 2	 0	 0	 3	 0	 28.183798	 0;
	 2	 0	 0	 3	 0	 24.068988	 0;
	 2	 0	 0	 3	 0	 38.099087	 0;
	 2	 0	 0	 3	 0	 14.711489	 0;
	 2	 0	 0	 3	 0	 26.257963	 0;
	 2	 0	 0	 3	 0	 42.47337	 0;
	 2	 0	 0	 3	 0	 28.018646	 0;
	 2	 0	 0	 3	 0	 10.35975	 0;
	 2	 0	 0	 3	 0	 41.099166	 0;
	 2	 0	 0	 3	 0	 27.419733	 0;
	 2	 0	 0	 3	 0	 37.265141	 0;
	 2	 0	 0	 3	 0	 38.981206	 0;
	 2	 0	 0	 3	 0	 40.270989	 0;
	 2	 0	 0	 3	 0	 45.497847	 0;
	 2	 0	 0	 3	 0	 35.893789	 0;
	 2	 0	 0	 3	 0	 36.6755	 0;
	 2	 0	 0	 3	 0	 20.528215	 0;
	 2	 0	 0	 3	 0	 27.290767	 0;
	 2	 0	 0	 3	 0	 16.289015	 0;
	 2	 0	 0	 3	 0	 12.664661	 0;
	 2	 0	 0	 3	 0	 39.38776	 0;
	 2	 0	 0	 3	 0	 28.485459	 0;
	 2	 0	 0	 3	 0	 34.428027	 0;
	 2	 0	 0	 3	 0	 20.079362	 0;
	 2	 0	 0	 3	 0	 23.115732	 0;
	 2	 0	 0	 3	 0	 16.525071	 0;
	 2	 0	 0	 3	 0	 36.520967	 0;
	 2	 0	 0	 3	 0	 31.111281	 0;
	 2	 0	 0	 3	 0	 23.826267	 0;
	 2	 0	 0	 3	 0	 30.50044	 0;
	 2	 0	 0	 3	 0	 35.532421	 0;
	 2	 0	 0	 3	 0	 29.499577	 0;
	 2	 0	 0	 3	 0	 39.469193	 0;
	 2	 0	 0	 3	 0	 32.257558	 0;
	 2	 0	 0	 3	 0	 32.262875	 0;
	 2	 0	 0	 3	 0	 29.534575	 0;
	 2	 0	 0	 3	 0	 30.550651	 0;
	 2	 0	 0	 3	 0	 27.393205	 0;
	 2	 0	 0	 3	 0	 27.781045	 0;
	 2	 0	 0	 3	 0	 43.269767	 0;
	 2	 0	 0	 3	 0	 31.191938	 0;
	 2	 0	 0	 3	 0	 22.636932	 0;
	 2	 0	 0	 3	 0	 23.55599	 0;
	 2	 0	 0	 3	 0	 20.788238	 0;
	 2	 0	 0	 3	 0	 19.181005	 0;
	 2	 0	 0	 3	 0	 36.03583	 0;
	 2	 0	 0	 3	 0	 19.608308	 0;
	 2	 0	 0	 3	 0	 40.116046	 0;
	 2	 0	 0	 3	 0	 44.116085	 0;
	 2	 0	 0	 3	 0	 25.299436	 0;
	 2	 0	 0	 3	 0	 39.983536	 0;
	 2	 0	 0	 3	 0	 11.656618	 0;
	 2	 0	 0	 3	 0	 40.976123	 0;
	 2	 0	 0	 3	 0	 20.470495	 0;
	 2	 0	 0	 3	 0	 31.37481	 0;
	 2	 0	 0	 3	 0	 33.747497	 0;
];


% -------------------- mpc_regionR2 --------------------

mpc_regionR2.version = '2';
mpc_regionR2.baseMVA = 100.0000;
mpc_regionR2.bus = [
%	bus_i       type        Pd          Qd          Gs          Bs          area        Vm          Va          baseKV      zone        Vmax        Vmin        
	 1	 1	 0	 0	 0	 84.79	 5	 1	 0	 345	 5	 1.1	 0.9;
	 2	 1	 0	 0	 0	 0	 5	 1	 0	 500	 5	 1.1	 0.9;
	 3	 2	 0	 0	 0	 110.69	 5	 1	 0	 500	 5	 1.1	 0.9;
	 4	 1	 0	 0	 0	 0	 5	 1	 0	 500	 5	 1.1	 0.9;
	 5	 1	 0	 0	 0	 0	 5	 1	 0	 500	 5	 1.1	 0.9;
	 6	 1	 154.6	 71.72	 0	 0	 5	 1	 0	 500	 5	 1.1	 0.9;
	 7	 2	 0	 0	 0	 2.15	 5	 1	 0	 345	 5	 1.1	 0.9;
	 8	 2	 0	 0	 0	-373.27	 5	 1	 0	 500	 5	 1.1	 0.9;
	 9	 1	 0	 0	 0	 0	 5	 1	 0	 500	 5	 1.1	 0.9;
	 10	 1	 0	 0	 0	 0	 5	 1	 0	 500	 5	 1.1	 0.9;
	 11	 2	 0	 0	 0	-161.35	 5	 1	 0	 500	 5	 1.1	 0.9;
	 12	 1	 86.89	 60.16	 0	 0	 5	 1	 0	 500	 5	 1.1	 0.9;
	 13	 1	 0	 0	 0	 70	 5	 1	 0	 500	 5	 1.1	 0.9;
	 14	 1	 0	 0	 0	 0	 5	 1	 0	 500	 5	 1.1	 0.9;
	 15	 2	 11	 40	 0	 0	 5	 1	 0	 500	 5	 1.1	 0.9;
	 16	 2	 5	 10	 0	 0	 5	 1	 0	 500	 5	 1.1	 0.9;
	 17	 1	 6.93	 3.11	 0	 0	 5	 1	 0	 138	 5	 1.1	 0.9;
	 18	 2	 14.65	 1	 0	 0	 5	 1	 0	 138	 5	 1.1	 0.9;
	 19	 2	 8.14	 1.32	 0	 0	 5	 1	 0	 138	 5	 1.1	 0.9;
	 20	 1	 14.17	 4.22	 0	 0	 5	 1	 0	 138	 5	 1.1	 0.9;
	 21	 2	 4.22	 1	 0	 0	 5	 1	 0	 138	 5	 1.1	 0.9;
	 22	 1	 131.91	 57.06	 0	 0	 5	 1	 0	 138	 5	 1.1	 0.9;
	 23	 1	 0	 0	 0	 48.6	 5	 1	 0	 32	 5	 1.1	 0.9;
	 24	 1	 0	 0	 0	 0	 5	 1	 0	 138	 5	 1.1	 0.9;
	 25	 1	 5.22	 2.11	 0	 0	 5	 1	 0	 138	 5	 1.1	 0.9;
	 26	 1	 2.61	 1	 0	 0	 5	 1	 0	 138	 5	 1.1	 0.9;
	 27	 2	 0.01	 0.01	 0	 0	 5	 1	 0	 138	 5	 1.1	 0.9;
	 28	 2	 0.01	 0.01	 0	 0	 5	 1	 0	 138	 5	 1.1	 0.9;
	 29	 1	 15.67	 5.22	 0	 0	 5	 1	 0	 138	 5	 1.1	 0.9;
	 30	 1	 16.78	 4.72	 0	 0	 5	 1	 0	 138	 5	 1.1	 0.9;
	 31	 1	 4.22	 0.5	 0	 0	 5	 1	 0	 138	 5	 1.1	 0.9;
	 32	 1	 10.85	 1	 0	 0	 5	 1	 0	 138	 5	 1.1	 0.9;
	 33	 2	 14.67	 3.11	 0	 0	 5	 1	 0	 138	 5	 1.1	 0.9;
	 34	 1	 7.54	 1	 0	 0	 5	 1	 0	 138	 5	 1.1	 0.9;
	 35	 2	 2.11	 0.5	 0	 22.81	 5	 1	 0	 138	 5	 1.1	 0.9;
	 36	 1	 5.73	 1	 0	 0	 5	 1	 0	 138	 5	 1.1	 0.9;
	 37	 1	 0	 0	 0	 60	 5	 1	 0	 16	 5	 1.1	 0.9;
	 38	 2	 9.45	 2.61	 0	 0	 5	 1	 0	 138	 5	 1.1	 0.9;
	 39	 1	 4.22	 1	 0	 0	 5	 1	 0	 138	 5	 1.1	 0.9;
	 40	 1	 23.11	 8.34	 0	 0	 5	 1	 0	 138	 5	 1.1	 0.9;
	 41	 1	 15.67	 2.61	 0	 0	 5	 1	 0	 138	 5	 1.1	 0.9;
	 42	 1	 19.89	 6.83	 0	 0	 5	 1	 0	 138	 5	 1.1	 0.9;
	 43	 1	 8.34	 2.71	 0	 0	 5	 1	 0	 138	 5	 1.1	 0.9;
	 44	 2	 16.78	 6.33	 0	 0	 5	 1	 0	 138	 5	 1.1	 0.9;
	 45	 2	 14.67	 3.11	 0	 0	 5	 1	 0	 138	 5	 1.1	 0.9;
	 46	 1	 5.8	-0.22	 0	 0	 5	 1	 0	 138	 5	 1.1	 0.9;
	 47	 1	 7.33	 2.11	 0	 0	 5	 1	 0	 138	 5	 1.1	 0.9;
	 48	 1	 5.22	 0.5	 0	 0	 5	 1	 0	 138	 5	 1.1	 0.9;
	 49	 1	 0	 0	 0	-16.07	 5	 1	 0	 138	 5	 1.1	 0.9;
	 50	 1	 0	 0	 0	-2.01	 5	 1	 0	 138	 5	 1.1	 0.9;
	 51	 2	 9.45	 1	 0	 0	 5	 1	 0	 138	 5	 1.1	 0.9;
	 52	 1	 21.52	 0.64	 0	 0	 5	 1	 0	 138	 5	 1.1	 0.9;
	 53	 1	 10.45	 1	 0	 0	 5	 1	 0	 138	 5	 1.1	 0.9;
	 54	 1	 8.34	 3.11	 0	 0	 5	 1	 0	 138	 5	 1.1	 0.9;
	 55	 1	 0	 0	 0	 0	 5	 1	 0	 138	 5	 1.1	 0.9;
	 56	 1	 14.67	 3.11	 0	 0	 5	 1	 0	 138	 5	 1.1	 0.9;
	 57	 2	 30.44	 4.22	 0	 0	 5	 1	 0	 138	 5	 1.1	 0.9;
	 58	 1	 18.89	 4.72	 0	 0	 5	 1	 0	 138	 5	 1.1	 0.9;
	 59	 2	 11.55	 1	 0	 0	 5	 1	 0	 138	 5	 1.1	 0.9;
	 60	 1	 17.78	 4.22	 0	 0	 5	 1	 0	 138	 5	 1.1	 0.9;
	 61	 1	 0	 0	 0	 0	 5	 1	 0	 138	 5	 1.1	 0.9;
	 62	 1	 0.27	-1.51	 0	 0	 5	 1	 0	 138	 5	 1.1	 0.9;
	 63	 1	 3.04	-0.86	 0	 0	 5	 1	 0	 138	 5	 1.1	 0.9;
	 64	 1	 0	 0	 0	-15.19	 5	 1	 0	 138	 5	 1.1	 0.9;
	 65	 1	 0	 0	 0	-14.11	 5	 1	 0	 138	 5	 1.1	 0.9;
	 66	 1	 0	 0	 0	 0	 5	 1	 0	 500	 5	 1.1	 0.9;
	 67	 1	 817.66	-176.93	 0	-0.33	 6	 1	 0	 500	 6	 1.1	 0.9;
	 68	 1	 2064.42	 68.94	 0	-0.3	 6	 1	 0	 500	 6	 1.1	 0.9;
	 69	 2	 0	 0	 0	 0	 6	 1	 0	 500	 6	 1.1	 0.9;
	 70	 2	 0	 0	 0	 0	 6	 1	 0	 500	 6	 1.1	 0.9;
	 71	 2	 0	 0	 0	 0	 6	 1	 0	 500	 6	 1.1	 0.9;
	 72	 1	 0	 0	 0	 0	 6	 1	 0	 500	 6	 1.1	 0.9;
	 73	 2	 0	 0	 0	 0	 6	 1	 0	 500	 6	 1.1	 0.9;
	 74	 2	 0	 0	 0	-12.06	 6	 1	 0	 500	 6	 1.1	 0.9;
	 75	 2	 0	 0	 0	 0	 6	 1	 0	 500	 6	 1.1	 0.9;
	 76	 2	 0	 0	 0	 0	 6	 1	 0	 500	 6	 1.1	 0.9;
	 77	 2	 0	 0	 0	 0	 6	 1	 0	 500	 6	 1.1	 0.9;
	 78	 2	 0	 0	 0	 0	 6	 1	 0	 500	 6	 1.1	 0.9;
	 79	 2	 0	 0	 0	 0	 6	 1	 0	 500	 6	 1.1	 0.9;
	 80	 2	 0	 0	 0	 0	 6	 1	 0	 500	 6	 1.1	 0.9;
	 81	 2	 0	 0	 0	 0	 6	 1	 0	 500	 6	 1.1	 0.9;
	 82	 2	 0	 0	 0	 0	 6	 1	 0	 500	 6	 1.1	 0.9;
	 83	 2	 0	 0	 0	 0	 6	 1	 0	 500	 6	 1.1	 0.9;
	 84	 2	 0	 0	 0	 0	 6	 1	 0	 500	 6	 1.1	 0.9;
	 85	 1	 94	 27.45	 0	 0	 6	 1	 0	 345	 6	 1.1	 0.9;
	 86	 2	 0	 0	 0	 0	 6	 1	 0	 345	 6	 1.1	 0.9;
	 87	 2	 0	 0	 0	 0	 6	 1	 0	 345	 6	 1.1	 0.9;
	 88	 2	 0	 0	 0	 0	 6	 1	 0	 345	 6	 1.1	 0.9;
	 89	 1	 0	 0	 0	 0	 6	 1	 0	 500	 6	 1.1	 0.9;
	 90	 2	 0	 0	 0	 0	 6	 1	 0	 500	 6	 1.1	 0.9;
	 91	 2	 0	 0	 0	 0	 6	 1	 0	 500	 6	 1.1	 0.9;
	 92	 2	 0	 0	 0	 0	 6	 1	 0	 500	 6	 1.1	 0.9;
	 93	 2	 0	 0	 0	 0	 6	 1	 0	 500	 6	 1.1	 0.9;
	 94	 1	 2311.34	-41.41	 0	 0	 6	 1	 0	 500	 6	 1.1	 0.9;
	 95	 1	 730.49	-118.29	 0	 0	 6	 1	 0	 500	 6	 1.1	 0.9;
	 96	 1	 0	 0	 0	 0	 6	 1	 0	 500	 6	 1.1	 0.9;
	 97	 1	 0	 0	 0	 0	 6	 1	 0	 500	 6	 1.1	 0.9;
	 98	 1	 401.59	 118.51	 0	 0	 6	 1	 0	 500	 6	 1.1	 0.9;
	 99	 1	 0	 0	 0	 0	 6	 1	 0	 500	 6	 1.1	 0.9;
	 100	 2	 0	 0	 0	-345.6	 6	 1	 0	 500	 6	 1.1	 0.9;
	 101	 1	 0	 0	 0	 0	 6	 1	 0	 500	 6	 1.1	 0.9;
	 102	 1	 0	 0	 0	 0	 6	 1	 0	 500	 6	 1.1	 0.9;
	 103	 1	 0	 0	 0	 0	 6	 1	 0	 500	 6	 1.1	 0.9;
	 104	 1	 0	 0	 0	 0	 6	 1	 0	 500	 6	 1.1	 0.9;
	 105	 2	 0	 0	 0	-0.36	 6	 1	 0	 345	 6	 1.1	 0.9;
	 106	 1	 0	 0	 0	 0	 6	 1	 0	 345	 6	 1.1	 0.9;
	 107	 1	 0	 0	 0	-0.88	 6	 1	 0	 345	 6	 1.1	 0.9;
	 108	 1	 0	 0	 0	-1.14	 6	 1	 0	 345	 6	 1.1	 0.9;
	 109	 1	 210.56	 76.05	 0	 3.12	 6	 1	 0	 138	 6	 1.1	 0.9;
	 110	 1	 258.5	 75.28	 0	 3.73	 6	 1	 0	 138	 6	 1.1	 0.9;
	 111	 2	 464.37	 123.64	 0	-1.94	 6	 1	 0	 138	 6	 1.1	 0.9;
	 112	 1	 98.7	 24.72	 0	-0.24	 6	 1	 0	 138	 6	 1.1	 0.9;
	 113	 1	 0	 0	 0	 0	 6	 1	 0	 33	 6	 1.1	 0.9;
	 114	 1	 30.08	 4.32	 0	 0	 6	 1	 0	 66	 6	 1.1	 0.9;
	 115	 1	 148.99	 30.2	 0	-0.62	 6	 1	 0	 138	 6	 1.1	 0.9;
	 116	 1	 148.99	 30.2	 0	-0.32	 6	 1	 0	 138	 6	 1.1	 0.9;
	 117	 1	 169.88	 46.79	 0	 0	 7	 1	 0	 500	 7	 1.1	 0.9;
	 118	 2	 0	 0	 0	 0	 7	 1	 0	 500	 7	 1.1	 0.9;
	 119	 2	 0	 0	 0	 0	 7	 1	 0	 500	 7	 1.1	 0.9;
	 120	 2	 0	 0	 0	 0	 7	 1	 0	 500	 7	 1.1	 0.9;
	 121	 2	 0	 0	 0	 0	 7	 1	 0	 500	 7	 1.1	 0.9;
	 122	 1	 0	 0	 0	 0	 7	 1	 0	 500	 7	 1.1	 0.9;
	 123	 2	 0	 0	 0	 0	 7	 1	 0	 500	 7	 1.1	 0.9;
	 124	 1	 0	 0	 0	 0	 7	 1	 0	 500	 7	 1.1	 0.9;
	 125	 2	 0	 0	 0	 0	 7	 1	 0	 500	 7	 1.1	 0.9;
	 126	 2	 0	 0	 0	 0	 7	 1	 0	 500	 7	 1.1	 0.9;
	 127	 1	 0	 0	 0	 0	 7	 1	 0	 500	 7	 1.1	 0.9;
	 128	 2	 0	 0	 0	 0	 7	 1	 0	 500	 7	 1.1	 0.9;
	 129	 2	 0	 0	 0	 0	 7	 1	 0	 500	 7	 1.1	 0.9;
	 130	 2	 0	 0	 0	 0	 7	 1	 0	 500	 7	 1.1	 0.9;
	 131	 2	 0	 0	 0	 0	 7	 1	 0	 500	 7	 1.1	 0.9;
	 132	 2	 0	 0	 0	 0	 7	 1	 0	 500	 7	 1.1	 0.9;
	 133	 2	 0	 0	 0	 0	 7	 1	 0	 500	 7	 1.1	 0.9;
	 134	 2	 0	 0	 0	 0	 7	 1	 0	 500	 7	 1.1	 0.9;
	 135	 2	 0	 0	 0	 0	 7	 1	 0	 500	 7	 1.1	 0.9;
	 136	 2	 0	 0	 0	 0	 7	 1	 0	 500	 7	 1.1	 0.9;
	 137	 2	 0	 0	 0	 0	 7	 1	 0	 500	 7	 1.1	 0.9;
	 138	 1	 2214.14	-276.84	 0	 0	 7	 1	 0	 500	 7	 1.1	 0.9;
	 139	 1	 0	 0	 0	 0	 7	 1	 0	 500	 7	 1.1	 0.9;
	 140	 2	 0	 0	 0	 0	 7	 1	 0	 500	 7	 1.1	 0.9;
	 141	 2	 0	 0	 0	 0	 7	 1	 0	 500	 7	 1.1	 0.9;
	 142	 2	 0	 0	 0	 0	 7	 1	 0	 500	 7	 1.1	 0.9;
	 143	 2	 0	 0	 0	 0	 7	 1	 0	 500	 7	 1.1	 0.9;
	 144	 2	 0	 0	 0	 0	 7	 1	 0	 500	 7	 1.1	 0.9;
	 145	 2	 0	 0	 0	 0	 7	 1	 0	 500	 7	 1.1	 0.9;
	 146	 2	 0	 0	 0	 0	 7	 1	 0	 500	 7	 1.1	 0.9;
	 147	 2	 0	 0	 0	 0	 7	 1	 0	 500	 7	 1.1	 0.9;
	 148	 1	 0	 0	 0	 0	 7	 1	 0	 138	 7	 1.1	 0.9;
	 149	 2	 0	 0	 0	 0	 7	 1	 0	 138	 7	 1.1	 0.9;
	 150	 2	 0	 0	 0	 0	 7	 1	 0	 138	 7	 1.1	 0.9;
	 151	 2	 0	 0	 0	 0	 7	 1	 0	 138	 7	 1.1	 0.9;
	 152	 2	 0	 0	 0	 0	 7	 1	 0	 138	 7	 1.1	 0.9;
	 153	 2	 0	 0	 0	 0	 7	 1	 0	 138	 7	 1.1	 0.9;
	 154	 2	 0	 0	 0	 0	 7	 1	 0	 138	 7	 1.1	 0.9;
	 155	 1	 0	 0	 0	 0	 7	 1	 0	 500	 7	 1.1	 0.9;
	 156	 2	 0	 0	 0	 0	 7	 1	 0	 500	 7	 1.1	 0.9;
	 157	 2	 0	 0	 0	 0	 7	 1	 0	 500	 7	 1.1	 0.9;
	 158	 2	 0	 0	 0	 0	 7	 1	 0	 500	 7	 1.1	 0.9;
	 159	 2	 0	 0	 0	 0	 7	 1	 0	 500	 7	 1.1	 0.9;
	 160	 1	 0	 0	 0	 0	 7	 1	 0	 500	 7	 1.1	 0.9;
	 161	 1	 0	 0	 0	 0	 7	 1	 0	 500	 7	 1.1	 0.9;
	 162	 1	 0	 0	 0	 0	 7	 1	 0	 500	 7	 1.1	 0.9;
	 163	 1	 387.83	-231.77	 0	 0	 7	 1	 0	 500	 7	 1.1	 0.9;
	 164	 1	 0	 0	 0	 0	 7	 1	 0	 500	 7	 1.1	 0.9;
	 165	 1	 0	 0	 0	 0	 7	 1	 0	 500	 7	 1.1	 0.9;
	 166	 1	 1290.53	-6.83	 0	 0	 7	 1	 0	 500	 7	 1.1	 0.9;
	 167	 1	 902.82	 37.02	 0	 0	 7	 1	 0	 500	 7	 1.1	 0.9;
	 168	 1	 0	 0	 0	 0	 7	 1	 0	 500	 7	 1.1	 0.9;
	 169	 1	 0	 0	 0	 0	 7	 1	 0	 500	 7	 1.1	 0.9;
	 170	 2	 0	 0	 0	-0.88	 7	 1	 0	 345	 7	 1.1	 0.9;
	 171	 2	 0	 0	 0	-1.14	 7	 1	 0	 345	 7	 1.1	 0.9;
	 172	 1	 137.24	 54.16	 0	-1.68	 7	 1	 0	 138	 7	 1.1	 0.9;
	 173	 1	 210.56	 76.05	 0	 3.12	 7	 1	 0	 138	 7	 1.1	 0.9;
	 174	 1	 258.5	 75.28	 0	 3.73	 7	 1	 0	 138	 7	 1.1	 0.9;
	 175	 1	 464.37	 123.64	 0	-1.94	 7	 1	 0	 138	 7	 1.1	 0.9;
	 176	 1	 0	 0	 0	 0	 7	 1	 0	 33	 7	 1.1	 0.9;
	 177	 1	 0	 0	 0	 0	 12	 1	 0	 345	 12	 1.1	 0.9;
	 178	 1	 0	 0	 0	 0	 12	 1	 0	 345	 12	 1.1	 0.9;
	 179	 1	 0	 0	 0	 13.26	 12	 1	 0	 345	 12	 1.1	 0.9;
	 180	 1	 139.86	 5.57	 0	 0	 12	 1	 0	 345	 12	 1.1	 0.9;
	 181	 1	 0	 0	 0	 0	 12	 1	 0	 345	 12	 1.1	 0.9;
	 182	 1	 180.25	-64.41	 0	 0	 12	 1	 0	 345	 12	 1.1	 0.9;
	 183	 1	 0	 0	 0	 0	 12	 1	 0	 345	 12	 1.1	 0.9;
	 184	 1	 0	 0	 0	 0	 12	 1	 0	 345	 12	 1.1	 0.9;
	 185	 2	 32.16	 52.07	 0	 0	 12	 1	 0	 345	 12	 1.1	 0.9;
	 186	 2	 46.36	 92.07	 0	 0	 12	 1	 0	 345	 12	 1.1	 0.9;
	 187	 3	 588.59	 166.73	 0	 0	 12	 1	 0	 500	 12	 1.1	 0.9;
	 188	 2	 846.34	 284.75	 0	 0	 12	 1	 0	 500	 12	 1.1	 0.9;
	 189	 1	 0	 0	 0	 64.44	 12	 1	 0	 500	 12	 1.1	 0.9;
	 190	 1	 38.8	-2.7	 0	 0	 12	 1	 0	 345	 12	 1.1	 0.9;
	 191	 1	 14.05	 25.54	 0	 0	 12	 1	 0	 345	 12	 1.1	 0.9;
	 192	 1	 7.48	 34.03	 0	-0.83	 12	 1	 0	 345	 12	 1.1	 0.9;
	 193	 1	 150.09	 55.6	 0	 0	 12	 1	 0	 345	 12	 1.1	 0.9;
	 194	 1	 0	 0	 0	 0	 12	 1	 0	 500	 12	 1.1	 0.9;
	 195	 2	 0	 0	 0	 115.89	 12	 1	 0	 500	 12	 1.1	 0.9;
	 196	 1	 3.65	 0.9	 0	 0	 12	 1	 0	 138	 12	 1.1	 0.9;
	 197	 1	 3.85	 1	 0	 0	 12	 1	 0	 138	 12	 1.1	 0.9;
	 198	 1	 0.49	 0.2	 0	 0	 12	 1	 0	 138	 12	 1.1	 0.9;
	 199	 1	 0.79	 0.2	 0	 0	 12	 1	 0	 138	 12	 1.1	 0.9;
	 200	 1	 1.18	-0.9	 0	 0	 12	 1	 0	 138	 12	 1.1	 0.9;
...
];

mpc_regionR2.gen = [
%	bus         Pg          Qg          Qmax        Qmin        Vg          mBase       status      Pmax        Pmin        Pc1         Pc2         Qc1min      Qc1max      Qc2min      Qc2max      ramp_agc    ramp_10     ramp_30     ramp_q      apf         
	 3	 0	 0	 33.33	-33.33	 1	 100	 0	 137.96	 122.97	 0	 0	 0	 0	 0	 0	 0	 0	 0	 0	 137.965;
	 7	 0	 0	 33.33	-33.33	 1	 100	 0	 53.54	 38.54	 0	 0	 0	 0	 0	 0	 0	 0	 0	 0	 53.537;
	 8	 0	 0	 33.33	-33.33	 1	 100	 0	 284.08	 269.08	 0	 0	 0	 0	 0	 0	 0	 0	 0	 0	 284.075;
	 11	 0	 0	 33.33	-33.33	 1	 100	 0	 42.02	 27.02	 0	 0	 0	 0	 0	 0	 0	 0	 0	 0	 42.024;
	 15	-10.5	 21.5	 105	-62	 1	 216.55	 1	 179	-200	 0	 0	 0	 0	 0	 0	 0	 0	 0	 0	 179;
	 15	-10.5	 21.5	 105	-62	 1	 179	 1	 179	-200	 0	 0	 0	 0	 0	 0	 0	 0	 0	 0	 179;
	 15	-10.5	 27.5	 130	-75	 1	 179	 1	 179	-200	 0	 0	 0	 0	 0	 0	 0	 0	 0	 0	 179;
	 16	-10.5	 30	 160	-100	 1	 179	 1	 179	-200	 0	 0	 0	 0	 0	 0	 0	 0	 0	 0	 179;
	 18	 40.5	-71	 35	-177	 1	 58.99	 1	 55	 26	 0	 0	 0	 0	 0	 0	 0	 0	 0	 0	 55;
	 19	 0	 0	 18.33	-18.33	 1	 55	 0	 55	 26	 0	 0	 0	 0	 0	 0	 0	 0	 0	 0	 55;
	 21	 148	 5	 188	-178	 1	 0.36	 1	 296	 0	 0	 0	 0	 0	 0	 0	 0	 0	 0	 0	 296;
	 27	 9	 0.5	 180	-179	 1	 18	 1	 18	 0	 0	 0	 0	 0	 0	 0	 0	 0	 0	 0	 18;
	 28	 11	 6.5	 186	-173	 1	 22	 1	 22	 0	 0	 0	 0	 0	 0	 0	 0	 0	 0	 0	 22;
	 33	 147	 14	 200	-172	 1	 0.24	 1	 294	 0	 0	 0	 0	 0	 0	 0	 0	 0	 0	 0	 294;
	 35	 0	 0	 33.33	-33.33	 1	 100	 0	 295	 7.66	 0	 0	 0	 0	 0	 0	 0	 0	 0	 0	 295;
	 38	 129.5	 14.5	 196	-167	 1	 2	 1	 258	 1	 0	 0	 0	 0	 0	 0	 0	 0	 0	 0	 258;
	 44	 149.5	-1	 177	-179	 1	 1	 1	 299	 0	 0	 0	 0	 0	 0	 0	 0	 0	 0	 0	 299;
	 45	 132	 11.5	 196	-173	 1	 1.08	 1	 264	 0	 0	 0	 0	 0	 0	 0	 0	 0	 0	 0	 264;
	 51	 133.5	 1.5	 175	-172	 1	 0.12	 1	 267	 0	 0	 0	 0	 0	 0	 0	 0	 0	 0	 0	 267;
	 57	 127	 1	 176	-174	 1	 9	 1	 254	 0	 0	 0	 0	 0	 0	 0	 0	 0	 0	 0	 254;
	 59	 133.5	 14	 199	-171	 1	 0.24	 1	 267	 0	 0	 0	 0	 0	 0	 0	 0	 0	 0	 0	 267;
	 69	 201.99	 0	 363.58	-363.58	 1	 100	 1	 403.98	 0	 0	 0	 0	 0	 0	 0	 0	 0	 0	 0	 403.976;
	 70	 201.99	 0	 363.58	-363.58	 1	 100	 1	 403.98	 0	 0	 0	 0	 0	 0	 0	 0	 0	 0	 0	 403.976;
	 71	 202.01	 0	 363.62	-363.62	 1	 100	 1	 404.02	 0	 0	 0	 0	 0	 0	 0	 0	 0	 0	 0	 404.019;
	 73	 183.75	 0	 330.75	-330.75	 1	 100	 1	 367.5	 0	 0	 0	 0	 0	 0	 0	 0	 0	 0	 0	 367.5;
	 74	 0	 0	 33.33	-33.33	 1	 100	 0	 635.08	 620.08	 0	 0	 0	 0	 0	 0	 0	 0	 0	 0	 635.08;
	 75	 135	 0	 194.4	-194.4	 1	 100	 1	 270	 0	 0	 0	 0	 0	 0	 0	 0	 0	 0	 0	 270;
	 76	 135	 0	 194.4	-194.4	 1	 100	 1	 270	 0	 0	 0	 0	 0	 0	 0	 0	 0	 0	 0	 270;
	 77	 135	 0	 194.4	-194.4	 1	 100	 1	 270	 0	 0	 0	 0	 0	 0	 0	 0	 0	 0	 0	 270;
	 78	 135	 0	 194.4	-194.4	 1	 100	 1	 270	 0	 0	 0	 0	 0	 0	 0	 0	 0	 0	 0	 270;
	 79	 151.875	 0	 218.7	-218.7	 1	 100	 1	 303.75	 0	 0	 0	 0	 0	 0	 0	 0	 0	 0	 0	 303.75;
	 80	 151.875	 0	 218.7	-218.7	 1	 100	 1	 303.75	 0	 0	 0	 0	 0	 0	 0	 0	 0	 0	 0	 303.75;
	 81	 135.565	 0	 195.21	-195.21	 1	 100	 1	 271.13	 0	 0	 0	 0	 0	 0	 0	 0	 0	 0	 0	 271.125;
	 82	 135.565	 0	 195.21	-195.21	 1	 100	 1	 271.13	 0	 0	 0	 0	 0	 0	 0	 0	 0	 0	 0	 271.125;
	 83	 135.565	 0	 195.21	-195.21	 1	 100	 1	 271.13	 0	 0	 0	 0	 0	 0	 0	 0	 0	 0	 0	 271.125;
	 84	 173.4	 0	 312.12	-312.12	 1	 100	 1	 346.8	 0	 0	 0	 0	 0	 0	 0	 0	 0	 0	 0	 346.8;
	 86	 198.96	 0	 358.13	-358.13	 1	 100	 1	 397.92	 0	 0	 0	 0	 0	 0	 0	 0	 0	 0	 0	 397.923;
	 87	 198.96	 0	 358.13	-358.13	 1	 100	 1	 397.92	 0	 0	 0	 0	 0	 0	 0	 0	 0	 0	 0	 397.923;
	 88	 198.96	 0	 358.13	-358.13	 1	 100	 1	 397.92	 0	 0	 0	 0	 0	 0	 0	 0	 0	 0	 0	 397.923;
	 90	 181.875	 0	 327.38	-327.38	 1	 100	 1	 363.75	 0	 0	 0	 0	 0	 0	 0	 0	 0	 0	 0	 363.75;
	 91	 181.875	 0	 327.38	-327.38	 1	 100	 1	 363.75	 0	 0	 0	 0	 0	 0	 0	 0	 0	 0	 0	 363.75;
	 92	 109.685	 0	 157.95	-157.95	 1	 100	 1	 219.37	 0	 0	 0	 0	 0	 0	 0	 0	 0	 0	 0	 219.375;
	 93	 109.685	 0	 157.95	-157.95	 1	 100	 1	 219.37	 0	 0	 0	 0	 0	 0	 0	 0	 0	 0	 0	 219.375;
	 100	 0	 0	 33.33	-33.33	 1	 100	 0	 1274.13	 1259.13	 0	 0	 0	 0	 0	 0	 0	 0	 0	 0	 1274.13;
	 105	 638.135	-10.62	 116.28	-137.52	 1	 100	 1	 781.58	 494.69	 0	 0	 0	 0	 0	 0	 0	 0	 0	 0	 781.582;
	 111	 392.03	 0	 38.05	-38.05	 1	 100	 1	 470.44	 313.62	 0	 0	 0	 0	 0	 0	 0	 0	 0	 0	 470.436;
	 118	 203.325	 0	 365.98	-365.98	 1	 100	 1	 406.65	 0	 0	 0	 0	 0	 0	 0	 0	 0	 0	 0	 406.648;
	 119	 203.125	 0	 365.63	-365.63	 1	 100	 1	 406.25	 0	 0	 0	 0	 0	 0	 0	 0	 0	 0	 0	 406.252;
	 120	 203.305	 0	 365.94	-365.94	 1	 100	 1	 406.61	 0	 0	 0	 0	 0	 0	 0	 0	 0	 0	 0	 406.605;
	 121	 203.27	 0	 365.89	-365.89	 1	 100	 1	 406.54	 0	 0	 0	 0	 0	 0	 0	 0	 0	 0	 0	 406.539;
	 123	 183.75	 0	 330.75	-330.75	 1	 100	 1	 367.5	 0	 0	 0	 0	 0	 0	 0	 0	 0	 0	 0	 367.5;
	 125	 183.75	 0	 330.75	-330.75	 1	 100	 1	 367.5	 0	 0	 0	 0	 0	 0	 0	 0	 0	 0	 0	 367.5;
	 126	 183.75	 0	 330.75	-330.75	 1	 100	 1	 367.5	 0	 0	 0	 0	 0	 0	 0	 0	 0	 0	 0	 367.5;
	 128	 135	 0	 194.4	-194.4	 1	 100	 1	 270	 0	 0	 0	 0	 0	 0	 0	 0	 0	 0	 0	 270;
	 129	 135	 0	 194.4	-194.4	 1	 100	 1	 270	 0	 0	 0	 0	 0	 0	 0	 0	 0	 0	 0	 270;
	 130	 135	 0	 194.4	-194.4	 1	 100	 1	 270	 0	 0	 0	 0	 0	 0	 0	 0	 0	 0	 0	 270;
	 131	 135	 0	 194.4	-194.4	 1	 100	 1	 270	 0	 0	 0	 0	 0	 0	 0	 0	 0	 0	 0	 270;
	 132	 151.875	 0	 218.7	-218.7	 1	 100	 1	 303.75	 0	 0	 0	 0	 0	 0	 0	 0	 0	 0	 0	 303.75;
	 133	 151.875	 0	 218.7	-218.7	 1	 100	 1	 303.75	 0	 0	 0	 0	 0	 0	 0	 0	 0	 0	 0	 303.75;
	 134	 135.565	 0	 195.21	-195.21	 1	 100	 1	 271.13	 0	 0	 0	 0	 0	 0	 0	 0	 0	 0	 0	 271.125;
	 135	 135.565	 0	 195.21	-195.21	 1	 100	 1	 271.13	 0	 0	 0	 0	 0	 0	 0	 0	 0	 0	 0	 271.125;
	 136	 135.565	 0	 195.21	-195.21	 1	 100	 1	 271.13	 0	 0	 0	 0	 0	 0	 0	 0	 0	 0	 0	 271.125;
	 137	 173.4	 0	 312.12	-312.12	 1	 100	 1	 346.8	 0	 0	 0	 0	 0	 0	 0	 0	 0	 0	 0	 346.8;
	 140	 158.44	 0	 228.15	-228.15	 1	 100	 1	 316.88	 0	 0	 0	 0	 0	 0	 0	 0	 0	 0	 0	 316.875;
	 141	 158.44	 0	 228.15	-228.15	 1	 100	 1	 316.88	 0	 0	 0	 0	 0	 0	 0	 0	 0	 0	 0	 316.875;
	 142	 158.44	 0	 228.15	-228.15	 1	 100	 1	 316.88	 0	 0	 0	 0	 0	 0	 0	 0	 0	 0	 0	 316.875;
	 143	 196.5	 0	 353.7	-353.7	 1	 100	 1	 393	 0	 0	 0	 0	 0	 0	 0	 0	 0	 0	 0	 393;
	 144	 163.125	 0	 234.9	-234.9	 1	 100	 1	 326.25	 0	 0	 0	 0	 0	 0	 0	 0	 0	 0	 0	 326.25;
	 145	 163.125	 0	 234.9	-234.9	 1	 100	 1	 326.25	 0	 0	 0	 0	 0	 0	 0	 0	 0	 0	 0	 326.25;
	 146	 157.5	 0	 226.8	-226.8	 1	 100	 1	 315	 0	 0	 0	 0	 0	 0	 0	 0	 0	 0	 0	 315;
	 147	 203.345	 0	 366.02	-366.02	 1	 100	 1	 406.69	 0	 0	 0	 0	 0	 0	 0	 0	 0	 0	 0	 406.694;
	 149	 41.25	 0	 59.4	-59.4	 1	 100	 1	 82.5	 0	 0	 0	 0	 0	 0	 0	 0	 0	 0	 0	 82.5;
	 150	 41.25	 0	 59.4	-59.4	 1	 100	 1	 82.5	 0	 0	 0	 0	 0	 0	 0	 0	 0	 0	 0	 82.5;
	 151	 42.19	 0	 60.75	-60.75	 1	 100	 1	 84.38	 0	 0	 0	 0	 0	 0	 0	 0	 0	 0	 0	 84.375;
	 152	 42.19	 0	 60.75	-60.75	 1	 100	 1	 84.38	 0	 0	 0	 0	 0	 0	 0	 0	 0	 0	 0	 84.375;
	 153	 42.19	 0	 60.75	-60.75	 1	 100	 1	 84.38	 0	 0	 0	 0	 0	 0	 0	 0	 0	 0	 0	 84.375;
...